13
6569
O          0.45290       -1.31460        0.00310
C         -0.74400        0.78490        0.01110
C          0.49910       -0.08550        0.00250
C         -2.02640       -0.02690       -0.00930
C          1.81840        0.64210       -0.00730
H         -0.71840        1.40810        0.91110
H         -0.71060        1.43680       -0.86810
H         -2.89730        0.63570       -0.00490
H         -2.09090       -0.68240        0.86550
H         -2.07930       -0.65610       -0.90400
H          1.89910        1.26600        0.88630
H          2.63880       -0.08110       -0.00850
H          1.88980        1.25890       -0.90650
