29
10029
F         -5.54490        0.30920       -0.07440
C          0.61650       -0.42800        0.06100
C         -0.65590        0.42400        0.08280
C          1.86990        0.44960        0.03710
C         -1.91010       -0.45280        0.06860
C          3.17350       -0.35220       -0.01600
C         -3.20920        0.35080        0.02010
C          4.42520        0.52510       -0.06510
C         -4.45740       -0.50940       -0.07100
C          5.69240       -0.31620       -0.04340
H          0.64080       -1.07970        0.94260
H          0.61010       -1.07760       -0.82250
H         -0.66250        1.05990        0.97610
H         -0.66660        1.08940       -0.78880
H          1.87950        1.09130        0.92690
H          1.82740        1.11620       -0.83320
H         -1.91580       -1.09510        0.95790
H         -1.87300       -1.11900       -0.80250
H          3.15780       -1.00720       -0.89600
H          3.22300       -1.00620        0.86360
H         -3.28230        0.98980        0.90860
H         -3.19270        1.03400       -0.83790
H          4.43320        1.20860        0.79180
H          4.41160        1.14040       -0.97190
H         -4.54470       -1.18240        0.78670
H         -4.47370       -1.09860       -0.99220
H          5.74970       -0.91660        0.87030
H          6.57580        0.32890       -0.08160
H          5.72840       -0.99320       -0.90290
