26
10027
F          4.09880       -0.96800        0.37330
C          0.09610        0.56760        0.17390
C         -1.09510       -0.33250       -0.16150
C          1.41820       -0.09110       -0.22720
C         -2.44780        0.28880        0.19810
C          2.60830        0.82140        0.07380
C         -3.64140       -0.57850       -0.20380
C          3.92240        0.17850       -0.33500
C         -4.95950        0.11370        0.10840
H          0.10130        0.78430        1.24880
H         -0.01190        1.52540       -0.34930
H         -0.98900       -1.28880        0.36560
H         -1.08180       -0.55990       -1.23480
H          1.53300       -1.04000        0.31070
H          1.40080       -0.32700       -1.29830
H         -2.48170        0.47740        1.27830
H         -2.53140        1.26520       -0.29560
H          2.63390        1.03390        1.14890
H          2.49190        1.77560       -0.45240
H         -3.59670       -0.79770       -1.27690
H         -3.59820       -1.53690        0.32600
H          4.76480        0.84120       -0.11700
H          3.93660       -0.07280       -1.39950
H         -5.80020       -0.52350       -0.18350
H         -5.04520        1.05950       -0.43620
H         -5.04800        0.32380        1.17910
