23
10044
C          0.63890       -0.00010       -0.00160
C         -0.87230        0.00000       -0.43100
C          1.35100        1.25480       -0.55210
C          1.36170       -1.23150       -0.59020
C          0.81930       -0.02300        1.52800
C         -1.64920        1.24470        0.02390
C         -1.64930       -1.24490        0.02300
H         -0.89910        0.00080       -1.53000
H          0.99030        2.17160       -0.07480
H          1.20170        1.35110       -1.63320
H          2.43130        1.20850       -0.37060
H          1.00440       -2.16600       -0.14600
H          2.44080       -1.18450       -0.40220
H          1.21770       -1.29270       -1.67460
H          0.38110       -0.92050        1.97560
H          0.36370        0.85090        2.00400
H          1.88270       -0.01720        1.79540
H         -1.21380        2.16410       -0.37720
H         -2.68320        1.20340       -0.33740
H         -1.68710        1.32510        1.11440
H         -1.70020       -1.31770        1.11360
H         -1.20550       -2.16520       -0.36610
H         -2.67920       -1.20990       -0.35060
