23
10352851
Cl         2.70130        0.99930       -1.48800
Cl         3.83420       -1.22270       -0.00570
Cl         2.76220        1.06260        1.42500
C         -1.35860       -0.59480        0.02020
C         -0.06200        0.22040        0.04440
C         -2.58750        0.31560       -0.01520
C          1.16790       -0.70080        0.03860
C         -3.88180       -0.49710       -0.00630
C          2.53010        0.01260       -0.00520
C         -5.10580        0.40490       -0.00780
H         -1.36590       -1.25130       -0.85850
H         -1.40170       -1.23920        0.90660
H         -0.05550        0.85670        0.93620
H         -0.04510        0.88300       -0.82770
H         -2.55420        0.94570       -0.91230
H         -2.57050        0.98700        0.85200
H          1.12160       -1.34210        0.92970
H          1.08950       -1.37590       -0.82490
H         -3.91560       -1.15290       -0.88400
H         -3.91220       -1.14020        0.88090
H         -6.02000       -0.19680       -0.00260
H         -5.11880        1.05030        0.87630
H         -5.12280        1.04120       -0.89840
