14
10450
O         -1.18860       -0.69520       -0.23170
O          1.18860       -0.69490       -0.23190
C         -0.00010        1.41040       -0.21610
C         -1.24880        0.65650        0.22320
C          1.24870        0.65660        0.22340
C          0.00020       -1.33330        0.23310
H          0.00000        1.46600       -1.31170
H         -0.00020        2.43120        0.17790
H         -1.35550        0.66600        1.31420
H         -2.14340        1.11960       -0.20450
H          2.14330        1.11990       -0.20410
H          1.35510        0.66580        1.31450
H          0.00020       -1.39320        1.32860
H          0.00030       -2.35590       -0.15520
