14
10485
Br         1.85750       -0.00010        0.00040
C         -0.11520       -0.00010       -0.00010
C         -0.58110        0.12430        1.44880
C         -0.58050        1.19300       -0.83210
C         -0.58070       -1.31720       -0.61690
H         -0.21960       -0.70980        2.06130
H         -0.21970        1.05060        1.91020
H         -1.67530        0.12940        1.50850
H         -0.21880        2.14030       -0.41560
H         -0.21870        1.12950       -1.86490
H         -1.67460        1.24250       -0.86670
H         -0.21930       -2.17980       -0.04520
H         -0.21880       -1.43050       -1.64550
H         -1.67490       -1.37160       -0.64270
