15
10558
S         -2.30480        0.01990       -0.12430
C          0.53140       -0.00750       -0.29770
C         -0.69640       -0.72420        0.28980
C          0.62850        1.45540        0.14030
C          1.84130       -0.74360       -0.00800
H          0.41870       -0.00590       -1.39100
H         -0.71880       -1.75830       -0.07110
H         -0.61880       -0.76580        1.38190
H          0.64480        1.53850        1.23230
H          1.54630        1.91420       -0.24410
H         -0.20610        2.05280       -0.23790
H          2.04310       -0.77560        1.06790
H          2.68630       -0.24970       -0.49910
H          1.79570       -1.77410       -0.37530
H         -2.16280        1.12900        0.61570
