15
10553
C          0.46750        0.04270       -0.00010
C         -0.73280        0.65250        0.00010
C          1.79950        0.73810        0.00000
C          0.55610       -1.46100        0.00000
C         -2.09030        0.02760        0.00000
H         -0.74030        1.74140       -0.01530
H          1.68420        1.82680        0.02140
H          2.38210        0.44610        0.87960
H          2.36730        0.47950       -0.89950
H          1.32030       -1.78970       -0.71380
H          0.84470       -1.81960        0.99340
H         -0.36620       -1.96540       -0.29590
H         -2.10160       -1.00230        0.36250
H         -2.74870        0.59870        0.66350
H         -2.51840        0.05800       -1.00630
