24
10695
C          1.11030        0.00040        0.00030
C          0.41210        1.20800       -0.00010
C          0.41340       -1.20810        0.00040
C         -1.67950       -0.00090       -0.00020
C         -0.98280        1.20740       -0.00030
C         -0.98150       -1.20870        0.00010
C          2.60610        0.00140        0.00010
C          1.13490        2.51540       -0.00010
C          1.13800       -2.51410       -0.00050
C         -3.17110       -0.00080        0.00020
H         -1.53130        2.14640       -0.00360
H         -1.52900       -2.14830       -0.00320
H          3.02440       -0.86420       -0.52260
H          3.02320        0.86780       -0.52230
H          2.97960        0.00140        1.02930
H          1.87330        2.55620        0.80770
H          1.63050        2.68040       -0.96220
H          0.44870        3.35450        0.16130
H          1.63310       -2.67840       -0.96300
H          1.87710       -2.55410        0.80660
H          0.45310       -3.35420        0.16120
H         -3.56680       -0.88750        0.50700
H         -3.56580        0.87300        0.52990
H         -3.54680        0.01220       -1.02770
