17
10823
N          1.49700       -1.21150        0.09640
C         -2.01380       -0.01000       -0.56060
C         -0.55250        0.01310       -0.28420
C         -2.85770       -0.02800        0.71130
C          0.13160        1.21560       -0.14580
C          0.16960       -1.16250       -0.15530
C          1.49770        1.20610        0.11340
C          2.12810       -0.02280        0.22470
H         -2.29170        0.86140       -1.16680
H         -2.26310       -0.88610       -1.17230
H         -2.63760       -0.91210        1.31930
H         -3.92250       -0.04470        0.45860
H         -2.66680        0.85890        1.32500
H         -0.38870        2.16510       -0.23610
H         -0.30840       -2.13260       -0.25090
H          2.05140        2.13120        0.22560
H          3.19240       -0.08470        0.42660
