14
10926
Cl        -1.66760       -1.44340       -0.36060
Cl        -1.62580        1.47180       -0.35410
C          0.38950       -0.01750        0.77680
C          1.27430       -0.02750       -0.47570
C         -1.12070        0.00470        0.51950
C          2.75040        0.01200       -0.10590
H          0.63050       -0.89770        1.38730
H          0.65140        0.85570        1.38880
H          1.05320        0.83580       -1.11190
H          1.08550       -0.92740       -1.07070
H         -1.65070        0.01020        1.47640
H          3.36760        0.00040       -1.00970
H          3.02520       -0.85460        0.50410
H          2.99000        0.91960        0.45720
