12
11084
F          1.36720        1.89430       -0.00040
F         -1.36710        1.89430        0.00030
F          2.73410       -0.47380       -0.00010
F         -2.73420       -0.47350       -0.00050
C          0.69750        0.73450        0.00020
C         -0.69740        0.73450        0.00020
C          1.39490       -0.47360        0.00010
C         -1.39480       -0.47360        0.00010
C          0.69730       -1.68160        0.00010
C         -0.69750       -1.68160        0.00010
H          1.24050       -2.62190       -0.00010
H         -1.24090       -2.62190       -0.00010
