47
11117373
C         -3.32000       -0.91710       -0.22190
C         -1.90830       -1.32640        0.25780
C         -3.82590        0.34690        0.50920
C         -0.78670       -0.43620       -0.28900
C         -5.22860        0.84920        0.10720
C          0.57880       -0.87960        0.24460
C          1.73650       -0.00860       -0.25370
C         -4.27010       -2.10470       -0.02910
C          3.10310       -0.46740        0.26040
C          4.26290        0.39560       -0.24820
C         -5.31470        1.21040       -1.37610
C         -5.60210        2.06820        0.95680
C          5.66060       -0.02750        0.21470
C          6.77090        0.90460       -0.27110
C          8.14350        0.39280        0.13850
H         -3.26090       -0.71220       -1.29770
H         -1.70060       -2.35560       -0.06310
H         -1.87920       -1.33220        1.35490
H         -3.10980        1.16230        0.34940
H         -3.82430        0.14880        1.58950
H         -0.78500       -0.47630       -1.38470
H         -0.95790        0.60700       -0.00310
H         -5.96950        0.06980        0.31870
H          0.56400       -0.85890        1.34130
H          0.76080       -1.92050       -0.05050
H          1.56460        1.02980        0.05510
H          1.74410       -0.01590       -1.35070
H         -5.25030       -1.90950       -0.47400
H         -3.87590       -3.00450       -0.51390
H         -4.41350       -2.32790        1.03350
H          3.10100       -0.45410        1.35720
H          3.27290       -1.50750       -0.04360
H          4.24470        0.39890       -1.34550
H          4.08880        1.43250        0.06640
H         -6.29670        1.63210       -1.61670
H         -5.17790        0.32880       -2.00930
H         -4.55390        1.94930       -1.64970
H         -6.61200        2.41620        0.71500
H         -5.58240        1.81990        2.02320
H         -4.90820        2.89880        0.78840
H          5.85580       -1.04640       -0.14230
H          5.67770       -0.06840        1.31090
H          6.61850        1.90910        0.13980
H          6.73170        0.99060       -1.36310
H          8.22540        0.31910        1.22760
H          8.92310        1.07450       -0.21560
H          8.33750       -0.59630       -0.28890
