26
11233
C          0.68720       -0.47460       -0.02160
C         -0.72430       -0.18480       -0.60460
C          1.28480        0.72820        0.75740
C          1.61600       -0.85800       -1.19380
C          0.62750       -1.68220        0.93780
C         -1.81290        0.14330        0.42330
C          1.48870        2.00450       -0.05010
C         -3.16700        0.32380       -0.24840
H         -0.66390        0.63400       -1.33250
H         -1.05100       -1.06420       -1.17750
H          0.65230        0.96250        1.62230
H          2.25910        0.43760        1.17280
H          1.63320       -0.08420       -1.96830
H          2.64480       -1.01450       -0.85030
H          1.28270       -1.78630       -1.67240
H          0.14450       -2.54350        0.46270
H          1.63430       -1.99360        1.24020
H          0.07620       -1.44830        1.85420
H         -1.90330       -0.65860        1.16260
H         -1.56150        1.06260        0.96230
H          2.19020        1.85540       -0.87540
H          1.90440        2.78640        0.59440
H          0.54520        2.38090       -0.45480
H         -3.93110        0.56280        0.49810
H         -3.13730        1.14010       -0.97730
H         -3.47340       -0.59030       -0.76700
