18
11250
C         -0.67740        0.00000       -0.00050
C          0.67720        0.00000        0.00020
C         -1.51670        1.25410       -0.00010
C         -1.51630       -1.25460        0.00040
C          1.51700       -1.25400       -0.00020
C          1.51620        1.25450        0.00020
H         -2.36200        1.14010       -0.68870
H         -1.91580        1.43990        1.00210
H         -0.97940        2.14450       -0.33290
H         -1.91600       -1.44110       -1.00150
H         -0.97830       -2.14460        0.33320
H         -2.36110       -1.14070        0.68960
H          1.91690       -1.43980        1.00160
H          2.36160       -1.13980       -0.68960
H          0.97950       -2.14450       -0.33260
H          2.36110        1.14090        0.68930
H          1.91580        1.44040       -1.00180
H          0.97840        2.14480        0.33270
