26
11269
C          0.02030       -0.43050        0.33080
C         -1.25140        0.46320        0.17360
C          1.32350        0.23370       -0.22510
C         -0.18170       -1.82980       -0.27690
C         -1.61230        0.77000       -1.28230
C         -2.47210       -0.12860        0.89070
C          1.61990        1.58910        0.42970
C          2.55390       -0.66710       -0.04060
H          0.16930       -0.57710        1.41040
H         -1.05490        1.41970        0.67220
H          1.21120        0.39950       -1.30340
H         -1.11560       -2.29050        0.05550
H          0.61390       -2.51460        0.03340
H         -0.18880       -1.79400       -1.37080
H         -1.84570       -0.14030       -1.84320
H         -2.49320        1.42020       -1.32880
H         -0.80080        1.29250       -1.79640
H         -2.22410       -0.41100        1.91900
H         -2.86870       -1.00820        0.37470
H         -3.27990        0.61050        0.93690
H          2.58230        1.98700        0.08940
H          0.86300        2.33430        0.16890
H          1.65750        1.50150        1.52070
H          2.49040       -1.56680       -0.65980
H          2.66910       -0.97160        1.00510
H          3.46920       -0.14570       -0.34220
