22
11271
O          0.00010       -0.00210       -1.56430
C          1.29600        0.11010        0.46890
C         -1.29590       -0.10880        0.46890
C          0.00000       -0.00030       -0.33240
C          2.32660        0.95380       -0.27550
C          1.83430       -1.28640        0.75540
C         -2.32640       -0.95440       -0.27360
C         -1.83470        1.28820        0.75260
H          1.06980        0.61500        1.41530
H         -1.06960       -0.61160        1.41640
H          2.62310        0.48600       -1.22090
H          3.22760        1.09080        0.33130
H          1.92100        1.94400       -0.50950
H          1.10310       -1.88300        1.31110
H          2.05740       -1.82450       -0.17270
H          2.75190       -1.23690        1.35080
H         -1.92060       -1.94520       -0.50530
H         -3.22750       -1.09020        0.33360
H         -2.62310       -0.48890       -1.21990
H         -2.05800        1.82420       -0.17660
H         -2.75210        1.23960        1.34820
H         -1.10350        1.88610        1.30710
