20
11357
N          0.68760       -2.13440        0.11420
C          0.47210        0.29200        0.26570
C          1.93410        0.44020        0.53620
C         -0.10100       -0.96400        0.06600
C         -0.32260        1.43730        0.21440
C          2.75220        0.60630       -0.73880
C         -1.46880       -1.07450       -0.18490
C         -1.69030        1.32650       -0.03650
C         -2.26340        0.07070       -0.23620
H          2.09470        1.32470        1.16740
H          2.32370       -0.38980        1.13570
H          0.10980        2.42290        0.36560
H          2.65700       -0.26920       -1.38960
H          3.81150        0.73340       -0.49410
H          2.42780        1.48450       -1.30740
H         -1.92850       -2.04700       -0.34240
H         -2.30900        2.21820       -0.07710
H         -3.32820       -0.01530       -0.43180
H          1.69340       -2.09180        0.18950
H          0.24840       -3.03250       -0.04280
