26
11447
C         -0.39750        0.72540        0.31410
C         -1.11890       -0.65110        0.23970
C          1.06950        0.69570       -0.17530
C         -1.14190        1.83970       -0.43580
C          1.92470       -0.38810        0.48540
C         -2.55120       -0.57800        0.78280
C         -1.13340       -1.27020       -1.16040
C          3.34880       -0.37350       -0.05050
H         -0.37370        1.01680        1.37370
H         -0.58650       -1.34560        0.90130
H          1.52720        1.67410        0.02170
H          1.09360        0.56260       -1.26430
H         -0.60840        2.79180       -0.33610
H         -1.22940        1.62070       -1.50440
H         -2.14640        1.99600       -0.03210
H          1.94140       -0.23720        1.57070
H          1.51210       -1.38390        0.29890
H         -2.57190       -0.10530        1.77020
H         -2.97070       -1.58470        0.88890
H         -3.21400       -0.01750        0.11600
H         -1.62110       -2.25130       -1.13910
H         -0.12230       -1.42260       -1.54820
H         -1.68180       -0.64610       -1.87270
H          3.94490       -1.15160        0.43630
H          3.82950        0.59140        0.14000
H          3.36410       -0.55870       -1.12940
