9
11536
Cl        -2.09510       -0.12540        0.00010
C          1.99270        0.08420        0.00020
C          0.57750       -0.39040       -0.00020
C         -0.47510        0.43170       -0.00010
H          2.06330        1.17660        0.00030
H          2.51160       -0.29140        0.88730
H          2.51200       -0.29130       -0.88690
H          0.42550       -1.46670       -0.00020
H         -0.40750        1.51130        0.00010
