19
11583
O          1.67390       -1.32640       -0.00490
C         -0.90090       -0.23230       -0.02270
C         -2.19680        0.57710       -0.00970
C          0.32380        0.67960       -0.02670
C         -3.41830       -0.32710        0.03340
C          1.62840       -0.09720       -0.00070
C          2.88990        0.72630        0.03130
H         -0.88000       -0.88470       -0.90460
H         -0.86800       -0.88890        0.85570
H         -2.21280        1.24160        0.86210
H         -2.24830        1.21140       -0.90230
H          0.32120        1.30570       -0.92570
H          0.30510        1.33190        0.85350
H         -3.41360       -0.95050        0.93330
H         -4.33380        0.27260        0.04050
H         -3.44990       -0.98530       -0.84070
H          2.93720        1.35840       -0.85880
H          2.90210        1.34270        0.93350
H          3.76150        0.06600        0.04250
