26
11592
C          0.57930        0.39140        0.74210
C         -0.40690       -0.38270       -0.14140
C          2.04550        0.24700        0.29030
C         -1.87820       -0.19160        0.27470
C          2.45030       -1.22910        0.30470
C          2.28800        0.83550       -1.10040
C         -2.23460        1.29680        0.25290
C         -2.84350       -0.96730       -0.62280
H          0.34550        1.46090        0.74030
H          0.48180        0.04780        1.77940
H         -0.18730       -1.45530       -0.09890
H         -0.29890       -0.07700       -1.18820
H          2.67270        0.78860        1.00940
H         -2.00430       -0.56030        1.30060
H          3.53280       -1.32150        0.16140
H          2.20530       -1.69680        1.26410
H          1.97210       -1.80330       -0.49500
H          1.78750        0.26470       -1.88840
H          3.35940        0.83560       -1.32950
H          1.93770        1.87170       -1.15100
H         -3.31150        1.43690        0.40090
H         -1.96710        1.76100       -0.70250
H         -1.73950        1.84570        1.05930
H         -2.78250       -0.62340       -1.66090
H         -2.60970       -2.03690       -0.60620
H         -3.87740       -0.84510       -0.28370
