21
11610
C          1.26220       -0.40500       -0.04800
C         -0.05840        0.33380        0.19020
C          2.45200        0.55310        0.01910
C         -1.27840       -0.59240        0.16040
C          3.76950       -0.18020       -0.17580
C         -2.57360        0.13530        0.37130
C         -3.57340        0.15550       -0.51720
H          1.23710       -0.89620       -1.02810
H          1.37990       -1.19240        0.70620
H         -0.01700        0.84590        1.16020
H         -0.17630        1.11410       -0.57270
H          2.35140        1.32610       -0.75170
H          2.46640        1.06240        0.98970
H         -1.17800       -1.34870        0.94850
H         -1.29530       -1.13520       -0.79300
H          3.80120       -0.67700       -1.15080
H          3.91570       -0.93760        0.60090
H          4.60610        0.52370       -0.12560
H         -2.70010        0.66630        1.31110
H         -4.48810        0.69700       -0.30210
H         -3.49930       -0.36190       -1.46720
