16
11672
O          1.44240        1.10560        0.00090
O          1.44470       -1.09770        0.00400
N          0.88050        0.00340       -0.00500
C         -0.60580       -0.00110       -0.00060
C         -1.06460        1.45380        0.01060
C         -1.04780       -0.72440       -1.26810
C         -1.04940       -0.73960        1.25820
H         -0.72830        2.00670       -0.87530
H         -2.16040        1.50280        0.01300
H         -0.72470        1.99420        0.90280
H         -0.72460       -1.77190       -1.28450
H         -0.64660       -0.24330       -2.16820
H         -2.14070       -0.72220       -1.35220
H         -0.64490       -0.27190        2.16390
H         -2.14210       -0.73470        1.34360
H         -0.72990       -1.78840        1.26040
