15
11721
O         -0.67410       -0.67230        0.26160
C          0.42910        0.00590       -0.33140
C          0.43660        1.45350        0.13550
C          1.71690       -0.71510        0.03700
C         -1.90850       -0.07200       -0.10270
H          0.32660       -0.02860       -1.42340
H          1.36760        1.95190       -0.15500
H         -0.38140        2.03110       -0.30690
H          0.33370        1.52030        1.22420
H          2.58820       -0.23660       -0.42030
H          1.67740       -1.75860       -0.29330
H          1.85620       -0.73450        1.12350
H         -2.09500        0.83210        0.48380
H         -2.70630       -0.78160        0.13670
H         -1.95790        0.14070       -1.17550
