48
11791
C         -0.21670       -1.37770       -0.00020
C         -1.30170       -0.50120       -0.00020
C          1.08500       -0.87630       -0.00040
C         -1.08500        0.87670       -0.00040
C          1.30180        0.50170       -0.00060
C          0.21660        1.37830       -0.00060
C         -0.44890       -2.85590        0.00050
C         -2.69800       -1.03930        0.00040
C          2.24880       -1.81740       -0.00050
C         -2.24930        1.81700       -0.00090
C          2.69800        1.03940        0.00000
C          0.44860        2.85660        0.00100
C         -0.53880       -3.42520       -1.41090
C         -3.23480       -1.24580        1.41230
C          2.69640       -2.17900        1.41120
C         -2.69670        2.17830       -1.41290
C          3.23600        1.24600       -1.41150
C          0.53860        3.42370        1.41340
H          0.32620       -3.39300        0.55500
H         -1.35110       -3.12920        0.55540
H         -3.38640       -0.39470       -0.55410
H         -2.77590       -1.97920       -0.55370
H          2.03420       -2.73560       -0.55510
H          3.10160       -1.41480       -0.55480
H         -3.10210        1.41450        0.55340
H         -2.03510        2.73540        0.55350
H          2.77580        1.97930        0.55430
H          3.38580        0.39460        0.55480
H          1.35100        3.13060       -0.55350
H         -0.32650        3.39440       -0.55270
H         -1.36070       -2.98060       -1.98060
H         -0.70860       -4.50610       -1.36800
H          0.37950       -3.25390       -1.98120
H         -2.62680       -1.95510        1.98240
H         -4.25570       -1.63930        1.37040
H         -3.26030       -0.31150        1.98180
H          3.00770       -1.29790        1.98100
H          3.54730       -2.86690        1.36900
H          1.90010       -2.66750        1.98140
H         -1.90050        2.66750       -1.98260
H         -3.54790        2.86570       -1.37100
H         -3.00700        1.29690       -1.98270
H          3.26120        0.31200       -1.98150
H          4.25720        1.63880       -1.36870
H          2.62890        1.95610       -1.98160
H         -0.37990        3.25180        1.98310
H          0.70870        4.50450        1.37230
H          1.36010        2.97790        1.98270
