28
11797
C         -0.72400       -0.02970       -0.23850
C          0.72400        0.02960       -0.23850
C         -1.47810        0.78530        0.60590
C          1.47810       -0.78520        0.60610
C         -1.36290       -0.91990       -1.10180
C          1.36290        0.91970       -1.10190
C         -2.87090        0.71000        0.58690
C          2.87080       -0.70990        0.58700
C         -0.82830        1.75160        1.54400
C          0.82840       -1.75130        1.54430
C         -2.75560       -0.99520       -1.12050
C          2.75570        0.99500       -1.12070
C         -3.50960       -0.18030       -0.27620
C          3.50950        0.18030       -0.27620
H         -0.79170       -1.56340       -1.76690
H          0.79170        1.56310       -1.76720
H         -3.47450        1.33710        1.23760
H          3.47460       -1.33690        1.23780
H         -0.23770        2.49020        0.99240
H         -1.57000        2.30890        2.12750
H         -0.18550        1.23180        2.26110
H          1.56990       -2.30810        2.12840
H          0.18500       -1.23160        2.26090
H          0.23840       -2.49040        0.99270
H         -3.25310       -1.68840       -1.79240
H          3.25320        1.68810       -1.79270
H         -4.59410       -0.23910       -0.29100
H          4.59390        0.23900       -0.29100
