28
11795
C          1.00870        0.15480       -0.00050
C         -0.08260       -0.72920       -0.00080
C          2.32350       -0.36890        0.00010
C         -1.46050       -0.26530       -0.00040
C          0.11960       -2.10960       -0.00040
C          0.82400        1.54700       -0.00060
C          2.50830       -1.76110        0.00050
C          3.41480        0.51500        0.00060
C          1.41250       -2.62460        0.00020
C         -2.11440       -0.04460        1.20790
C         -2.11540       -0.04470       -1.20820
C          1.91970        2.41050       -0.00030
C          3.21270        1.89550        0.00020
C         -3.43610        0.40080        1.20840
C         -3.43720        0.40080       -1.20750
C         -4.09760        0.62350        0.00080
H         -0.72000       -2.80130       -0.00050
H         -0.16400        2.00020       -0.00100
H          3.51000       -2.18580        0.00100
H          4.43430        0.13480        0.00110
H          1.56940       -3.69940        0.00040
H         -1.61240       -0.21300        2.15750
H         -1.61430       -0.21310       -2.15830
H          1.76360        3.48530       -0.00050
H          4.06540        2.56830        0.00050
H         -3.95030        0.57440        2.14910
H         -3.95230        0.57460       -2.14770
H         -5.12670        0.97050        0.00130
