21
11903
C          0.46280        0.30780       -0.26570
C          1.92220        0.47320       -0.53570
C         -0.09110       -0.95660       -0.06460
C         -0.34940        1.44090       -0.21600
C         -1.45700       -1.08770        0.18610
C          2.73850        0.65160        0.73910
C          0.75800       -2.18440       -0.11400
C         -1.71520        1.30970        0.03490
C         -2.26890        0.04540        0.23590
H          2.32080       -0.36440       -1.11830
H          2.07610        1.35160       -1.17660
H          0.06850        2.43260       -0.36840
H         -1.90520       -2.06510        0.34410
H          2.41520        1.53960        1.29310
H          3.79820        0.77500        0.49370
H          2.64390       -0.20980        1.40720
H          1.14850       -2.34280       -1.12450
H          1.58710       -2.12460        0.59670
H          0.18340       -3.07950        0.15080
H         -2.34750        2.19190        0.07420
H         -3.33250       -0.05660        0.43110
