28
11941
C         -0.72350        0.00040       -0.00020
C          0.72350        0.00040        0.00030
C         -1.42100        1.16700       -0.31310
C          1.42100        1.16700        0.31310
C         -1.42070       -1.16660        0.31280
C          1.42070       -1.16660       -0.31280
C         -3.51330        0.00000        0.00010
C          3.51320       -0.00010       -0.00020
C         -2.81580        1.16680       -0.31290
C          2.81580        1.16680        0.31280
C         -2.81560       -1.16680        0.31300
C          2.81560       -1.16690       -0.31300
C         -5.00460       -0.00080        0.00000
C          5.00460       -0.00070        0.00000
H         -0.92150        2.09060       -0.59240
H          0.92170        2.09040        0.59320
H         -0.92120       -2.08980        0.59310
H          0.92110       -2.09000       -0.59230
H         -3.34850        2.08060       -0.56300
H          3.34870        2.07950        0.56650
H         -3.34820       -2.07960        0.56670
H          3.34810       -2.08070       -0.56320
H         -5.40030        0.71840       -0.72540
H         -5.39920       -0.98440       -0.27670
H         -5.38040        0.26110        0.99410
H          5.39930       -0.71070       -0.73470
H          5.40050        0.98590       -0.26370
H          5.37990       -0.27570        0.99070
