19
12101
O         -2.43200        1.52770       -0.08960
C          0.84630       -0.05170        0.28920
C          2.26330        0.33340        0.54890
C         -0.14210        0.93030        0.22120
C          0.50930       -1.39390        0.11350
C          3.04270        0.61080       -0.73230
C         -1.46750        0.56990       -0.02250
C         -0.81590       -1.75420       -0.13010
C         -1.80420       -0.77230       -0.19820
H          2.29650        1.22110        1.19310
H          2.76730       -0.45960        1.11560
H          0.11410        1.97850        0.35510
H          1.27040       -2.16820        0.16230
H          3.06840       -0.27270       -1.37910
H          4.07440        0.88880       -0.49480
H          2.59120        1.43090       -1.30060
H         -1.07810       -2.79920       -0.26740
H         -2.83300       -1.06620       -0.38890
H         -3.28820        1.10090       -0.26470
