21
12160
C          0.97860        0.00020        0.29030
C          2.45660        0.00000        0.49050
C         -1.78590       -0.00010       -0.08400
C          0.28720        1.20810        0.19670
C          0.28770       -1.20800        0.19680
C         -1.09500        1.20800        0.00950
C         -1.09460       -1.20810        0.00960
C          3.22890        0.00000       -0.82430
C         -3.26350       -0.00020       -0.28510
H          2.75230        0.87360        1.08500
H          2.75230       -0.87370        1.08510
H          0.81440        2.15600        0.26570
H          0.81510       -2.15580        0.26590
H         -1.62210        2.15550       -0.06430
H         -1.62150       -2.15580       -0.06420
H          2.99080       -0.88550       -1.42330
H          4.30620       -0.00010       -0.63030
H          2.99090        0.88550       -1.42330
H         -3.72470       -0.88150        0.17360
H         -3.72520        0.87930        0.17650
H         -3.49710        0.00140       -1.35440
