27
12242
O          2.95670        1.08150       -0.11240
C          1.99310        0.02480       -0.00220
C          0.59430        0.66420       -0.11840
C         -0.58530       -0.30450        0.00510
C         -1.92030        0.44330       -0.05220
C          2.27450       -0.97600       -1.12500
C          2.21920       -0.63030        1.36090
C         -3.10240       -0.52210        0.03370
C         -4.42970        0.21890        0.01050
H          0.52680        1.19850       -1.07600
H          0.50230        1.44630        0.64790
H         -0.52900       -0.85370        0.95100
H         -0.54990       -1.04140       -0.80480
H         -1.98260        1.01580       -0.98570
H         -1.97250        1.16380        0.77320
H          3.31370       -1.32360       -1.08900
H          1.62250       -1.85280       -1.06800
H          2.14100       -0.50510       -2.10550
H          2.02820        0.08240        2.17140
H          1.58080       -1.50620        1.50990
H          3.26140       -0.95180        1.47340
H         -3.06860       -1.22780       -0.80440
H         -3.03660       -1.11040        0.95630
H          3.84510        0.69030       -0.05460
H         -5.26100       -0.49040        0.07180
H         -4.50890        0.90890        0.85670
H         -4.54150        0.79430       -0.91400
