18
12250
O          1.39810       -0.28380       -0.28960
C         -1.00190        0.01060       -0.32710
C          0.34220        0.54950        0.17040
C         -1.26500       -1.40210        0.19880
C         -2.13590        0.94860        0.08100
C          2.66260        0.17720        0.16650
H         -0.97010       -0.04810       -1.42250
H          0.49720        1.56640       -0.21020
H          0.35410        0.58480        1.26690
H         -2.22980       -1.77570       -0.16060
H         -1.28210       -1.42080        1.29380
H         -0.49360       -2.10110       -0.14040
H         -3.09680        0.58540       -0.29850
H         -1.97510        1.95290       -0.32520
H         -2.21160        1.03150        1.17060
H          3.43330       -0.49610       -0.21800
H          2.70350        0.16590        1.26000
H          2.86160        1.18580       -0.20830
