16
12302
O          2.10700       -1.11670        0.25720
O          2.13270        1.08630        0.27910
N          1.61980       -0.00650       -0.01970
C         -0.78620        0.04020        0.22790
C         -2.13890       -0.00040       -0.48200
C          0.35540        0.01860       -0.77380
C         -3.28970       -0.02160        0.51130
H         -0.72540        0.94090        0.85230
H         -0.70770       -0.81790        0.90820
H         -2.19960       -0.89110       -1.11820
H         -2.24210        0.87340       -1.13590
H          0.33050       -0.87260       -1.40930
H          0.36190        0.90840       -1.41140
H         -4.24710       -0.04870       -0.01840
H         -3.23420       -0.90330        1.15770
H         -3.27720        0.87080        1.14510
