18
12339
S         -2.24510        0.51200       -0.43400
C          0.48810       -0.02380       -0.20720
C          1.87090        0.32250        0.35120
C         -0.62240        0.90540        0.28270
C          2.94820       -0.56900       -0.24800
C         -2.43970       -1.14710        0.25540
H          0.26930       -1.06100        0.07010
H          0.53070        0.01230       -1.30360
H          2.10830        1.36950        0.13000
H          1.86850        0.21240        1.44160
H         -0.69790        0.87440        1.37490
H         -0.38450        1.93820        0.00660
H          3.92780       -0.30830        0.16470
H          2.99580       -0.45140       -1.33530
H          2.75460       -1.62290       -0.02390
H         -1.80520       -1.86500       -0.26950
H         -3.47870       -1.46250        0.12400
H         -2.21350       -1.15710        1.32490
