13
123388
S         -0.12420       -1.13730       -0.40250
S          1.18420        0.41040       -0.75230
C         -1.37430       -0.33580        0.63070
C         -2.01770        0.82010       -0.11160
C          2.33200        0.24270        0.63570
H         -2.13550       -1.08310        0.87680
H         -0.92870       -0.00030        1.57240
H         -1.33900        1.66600       -0.25280
H         -2.41030        0.51350       -1.08730
H         -2.86460        1.19730        0.47280
H          1.80780        0.36790        1.58700
H          3.09680        1.02050        0.56110
H          2.82910       -0.73070        0.60920
