22
12370
C          0.62500        0.57580       -0.01670
C          1.82750       -0.36970       -0.01700
C         -0.69330       -0.20010       -0.03830
C          3.14380        0.40510        0.03800
C         -1.89530        0.74380       -0.00430
C          4.34230       -0.52970        0.00430
C         -3.15830       -0.00730        0.01110
C         -4.19180       -0.61790        0.02300
H          0.67660        1.23840       -0.88910
H          0.66080        1.21250        0.87570
H          1.76510       -1.04650        0.84370
H          1.80320       -0.99220       -0.91980
H         -0.73780       -0.82740       -0.93770
H         -0.73270       -0.88010        0.82250
H          3.18280        1.00880        0.95230
H          3.20490        1.09670       -0.81040
H         -1.87250        1.40570       -0.87780
H         -1.84150        1.38270        0.88480
H          4.32870       -1.21580        0.85720
H          5.27270        0.04520        0.04560
H          4.35090       -1.12390       -0.91510
H         -5.10850       -1.15970        0.03360
