48
12397
O          9.46360        0.33610        0.12050
C         -0.63110        0.39670       -0.18220
C          0.65950       -0.42920       -0.13700
C         -1.93560       -0.40730       -0.15190
C          1.92540        0.42870       -0.07440
C         -3.19070        0.46880       -0.13500
C          3.21610       -0.39730       -0.03690
C         -4.46150       -0.38320       -0.09550
C          4.51460        0.40880        0.08530
C         -5.74860        0.44600       -0.04340
C          5.77340       -0.46040        0.02790
C         -7.05480       -0.35270        0.02250
C          7.07000        0.34710        0.09540
C         -8.33410        0.47770        0.14520
C          8.32530       -0.51460        0.07220
C         -9.59150       -0.36520        0.28740
H         -0.62030        1.01960       -1.08560
H         -0.63110        1.08840        0.66990
H          0.70030       -1.07690       -1.02110
H          0.63040       -1.08960        0.73840
H         -1.93380       -1.05210        0.73570
H         -1.96450       -1.07080       -1.02500
H          1.88450        1.06680        0.81680
H          1.95410        1.09830       -0.94270
H         -3.20480        1.10970       -1.02460
H         -3.16440        1.12950        0.73980
H          3.26370       -1.00770       -0.94780
H          3.16250       -1.10030        0.80400
H         -4.42920       -1.04180        0.78120
H         -4.49180       -1.03330       -0.97860
H          4.55140        1.14690       -0.72530
H          4.50180        0.97180        1.02640
H         -5.78390        1.10090       -0.92320
H         -5.70200        1.10720        0.83120
H          5.76590       -1.04660       -0.89930
H          5.75090       -1.17850        0.85680
H         -7.12580       -0.98520       -0.87140
H         -6.99800       -1.03580        0.87960
H          7.07650        0.96240        1.00430
H          7.10700        1.05810       -0.73980
H         -8.43210        1.12240       -0.73610
H         -8.25320        1.13960        1.01550
H          8.35310       -1.18640        0.93590
H          8.37260       -1.10940       -0.84540
H         -9.54250       -0.99190        1.18340
H         -9.72390       -1.01760       -0.58140
H        -10.47340        0.27790        0.36890
H         10.24860       -0.23760        0.10440
