12
12468
Cl         2.83280        0.00030        0.00040
Cl         1.19270        2.74470       -0.00020
Cl         1.19340       -2.74440       -0.00010
Cl        -3.41640       -0.00040        0.00000
C          1.09450        0.00020       -0.00020
C          0.39680        1.20800       -0.00010
C          0.39720       -1.20800       -0.00010
C         -0.99810        1.20790        0.00010
C         -0.99770       -1.20810        0.00000
C         -1.69530       -0.00010        0.00020
H         -1.54580        2.14810        0.00020
H         -1.54520       -2.14850        0.00000
