21
12528
S         -1.36120        0.72550       -0.01420
C          1.41000        0.36880       -0.05060
C          2.63490       -0.54900       -0.01390
C          0.07890       -0.38230       -0.02580
C          3.92500        0.25360        0.06190
C         -2.65830       -0.53260        0.01410
C         -4.02940        0.11590        0.02850
H          1.46170        0.99380       -0.95150
H          1.45460        1.04830        0.81060
H          2.57460       -1.21360        0.85570
H          2.64960       -1.18290       -0.90780
H          0.01250       -1.03250       -0.90470
H          0.03460       -1.01430        0.86750
H          4.78840       -0.41880        0.08310
H          3.95220        0.86950        0.96650
H          4.02850        0.91230       -0.80630
H         -2.56410       -1.17030       -0.87050
H         -2.53900       -1.15640        0.90560
H         -4.16830        0.74420        0.91490
H         -4.19350        0.73030       -0.86340
H         -4.80640       -0.65570        0.04550
