16
12732
C          0.54410       -0.24890       -0.03050
C          1.89780        0.46060        0.00410
C         -0.61030        0.75250        0.00120
C          3.04800       -0.53370        0.01320
C         -1.90860        0.06430        0.00460
C         -2.97100       -0.49480        0.00740
H          0.47500       -0.86880       -0.93360
H          0.46570       -0.93090        0.82620
H          1.96460        1.09290        0.89710
H          1.99550        1.11800       -0.86750
H         -0.54930        1.41720       -0.86840
H         -0.53100        1.38340        0.89430
H          4.00590       -0.00480        0.03630
H          3.02890       -1.16340       -0.88200
H          2.99780       -1.18400        0.89230
H         -3.91320       -0.99100        0.00990
