16
12746
C         -1.47040       -0.73060        0.15410
C         -0.04790       -1.21390       -0.12870
C         -1.46530        0.77820       -0.08570
C          0.75930        0.03930       -0.00430
C         -0.01910        1.12720        0.02070
C          2.24330       -0.00020        0.04390
H         -1.72930       -0.93740        1.20090
H         -2.21110       -1.24420       -0.46750
H          0.03950       -1.62640       -1.13940
H          0.25520       -1.97640        0.59540
H         -2.06660        1.29880        0.66520
H         -1.84470        1.02940       -1.08150
H          0.34550        2.14290        0.07870
H          2.67160        1.00500        0.11360
H          2.64160       -0.47440       -0.85860
H          2.58120       -0.57120        0.91430
