20
12776646
F         -3.25720       -0.76180        0.06020
F         -2.38880        1.21650        0.31220
C          0.28380        0.25540       -0.27320
C          1.59770       -0.40670        0.14470
C         -0.91840       -0.60840        0.10490
C          2.79870        0.47200       -0.20430
C         -2.22480        0.03030       -0.32370
C          4.10890       -0.19730        0.17920
H          0.28760        0.42650       -1.35650
H          0.19760        1.23700        0.20860
H          1.58670       -0.59930        1.22450
H          1.69360       -1.37800       -0.35570
H         -0.93520       -0.75860        1.19090
H         -0.83540       -1.60230       -0.34960
H          2.71960        1.43420        0.31490
H          2.80570        0.68330       -1.28000
H         -2.28520        0.19230       -1.40340
H          4.95410        0.44870       -0.07830
H          4.14790       -0.39530        1.25510
H          4.23400       -1.14720       -0.35020
