28
12997
C          0.60300        0.27850       -0.00340
C          1.91040       -0.51670       -0.02050
C         -0.64740       -0.60630       -0.01490
C          3.12490        0.41460       -0.02010
C         -1.95620        0.19230       -0.02260
C          4.43250       -0.37670        0.00120
C         -3.19600       -0.70340        0.03430
C          5.64070        0.54550        0.03530
C         -4.44490        0.07120        0.01310
C         -5.46690        0.70090       -0.00240
H          0.57970        0.91880        0.88730
H          0.57530        0.94590       -0.87370
H          1.93840       -1.15870       -0.90910
H          1.94790       -1.17460        0.85610
H         -0.62030       -1.25930       -0.89590
H         -0.62910       -1.26040        0.86560
H          3.09710        1.05720       -0.90850
H          3.08130        1.07290        0.85630
H         -1.96510        0.88050        0.83250
H         -1.99290        0.81660       -0.92470
H          4.45740       -1.03220        0.87950
H          4.49330       -1.01900       -0.88500
H         -3.16420       -1.31530        0.94340
H         -3.18560       -1.39630       -0.81530
H          6.56480       -0.04090        0.04880
H          5.66330        1.19500       -0.84550
H          5.62680        1.17780        0.92880
H         -6.37340        1.25960       -0.01620
