12
13
Cl         1.83580       -2.09070       -0.00070
Cl         2.80460        0.99730        0.00030
Cl        -3.26980       -0.42440       -0.00030
C          0.71520       -0.77420        0.00050
C          1.13290        0.55660       -0.00010
C         -0.64610       -1.07790        0.00070
C         -1.58980       -0.05070        0.00030
C          0.18920        1.58390       -0.00030
C         -1.17210        1.28010       -0.00020
H         -0.97510       -2.11500        0.00080
H          0.49700        2.62650       -0.00060
H         -1.89640        2.09080       -0.00060
