13
13041
F         -1.42210        2.33560       -0.00040
F         -1.29880       -2.40630       -0.00040
F          2.73430        0.07110       -0.00010
F          1.42930       -2.33160       -0.00040
F          1.30610        2.40260       -0.00050
O         -2.75410       -0.07150       -0.00030
C         -1.39350       -0.03610        0.00040
C         -0.72780        1.18950        0.00050
C         -0.66500       -1.22570        0.00030
C          0.72950       -1.18960        0.00030
C          0.66660        1.22570        0.00030
C          1.39530        0.03620        0.00030
H         -3.03740       -1.00240       -0.00040
