33
13190
C          1.23100        0.42850       -0.01860
C         -0.06040       -0.37730       -0.17380
C          2.49710       -0.42960       -0.09930
C         -1.29220        0.52690       -0.07930
C          3.82200        0.32140        0.06960
C         -2.58580       -0.28420       -0.20300
C          5.08170       -0.54730        0.05710
C         -3.84750        0.57660       -0.08420
C          6.37000        0.25120        0.18190
C         -5.11280       -0.20760       -0.27410
C         -6.10310       -0.25870        0.62380
H          1.27440        1.20010       -0.79710
H          1.21800        0.95200        0.94530
H         -0.05590       -0.89560       -1.14020
H         -0.10620       -1.14650        0.60640
H          2.51120       -0.95040       -1.06510
H          2.44000       -1.20940        0.67080
H         -1.25700        1.28480       -0.87100
H         -1.28630        1.05880        0.87980
H          3.79050        0.87850        1.01450
H          3.89970        1.07120       -0.72790
H         -2.60430       -1.05900        0.57430
H         -2.58970       -0.80690       -1.16820
H          5.11240       -1.12490       -0.87430
H          5.02960       -1.27160        0.87850
H         -3.84890        1.08340        0.88870
H         -3.81920        1.36340       -0.84810
H          7.23550       -0.41850        0.16810
H          6.47260        0.95870       -0.64700
H          6.38980        0.81540        1.11970
H         -5.22890       -0.75010       -1.20880
H         -6.99740       -0.83820        0.42250
H         -6.04120        0.27090        1.56800
