41
13193
Cl        -7.34550       -1.41890       -0.50450
C          0.57330       -0.28640        0.19660
C         -0.67220        0.53930       -0.13350
C          1.85170        0.45640       -0.19890
C         -1.98240       -0.16550        0.23200
C          3.09890       -0.35090        0.16510
C         -3.22800        0.65090       -0.12300
C          4.37690        0.37590       -0.25990
C         -4.53840       -0.06100        0.23170
C          5.62320       -0.41920        0.13570
C         -5.78190        0.78930       -0.04780
C          6.93240        0.27860       -0.23900
C         -7.08190        0.10740        0.36970
C          8.17390       -0.49580        0.17560
H          0.52700       -1.24730       -0.33000
H          0.59030       -0.50610        1.27090
H         -0.67810        0.76980       -1.20620
H         -0.62230        1.49870        0.39620
H          1.84190        0.65340       -1.27780
H          1.88480        1.42890        0.30720
H         -2.02690       -1.13160       -0.28590
H         -1.98640       -0.38200        1.30730
H          3.11730       -0.52720        1.24760
H          3.05740       -1.33290       -0.32180
H         -3.18610        1.61230        0.40370
H         -3.22120        0.87650       -1.19640
H          4.37080        0.53280       -1.34510
H          4.41120        1.36590        0.21060
H         -4.52190       -0.33080        1.29500
H         -4.58170       -0.99880       -0.33360
H          5.61080       -0.59450        1.21880
H          5.59190       -1.40510       -0.34450
H         -5.69840        1.73910        0.49430
H         -5.82180        1.03780       -1.11550
H          6.96020        0.43920       -1.32330
H          6.96250        1.26960        0.22950
H         -7.93550        0.75900        0.16060
H         -7.07760       -0.11870        1.44030
H          8.19910       -0.64060        1.26030
H          9.07730        0.04800       -0.11730
H          8.19740       -1.47990       -0.30300
