18
7470
O         -2.69730       -1.19430       -0.00050
O         -2.86040        1.07290        0.00130
C          2.08480       -0.00450       -0.00040
C         -0.70470        0.03510       -0.00060
C          1.40460        1.21330       -0.00080
C          1.37030       -1.20240        0.00000
C          0.00990        1.23310       -0.00090
C         -0.02440       -1.18260       -0.00010
C          3.57620       -0.02660        0.00140
C         -2.15890        0.05600        0.00060
H          1.95030        2.15320        0.00110
H          1.88950       -2.15720        0.00260
H         -0.50120        2.19230       -0.00050
H         -0.54090       -2.13840        0.00100
H          3.95850       -0.90570       -0.52830
H          3.98550        0.85470       -0.50400
H          3.95020       -0.04610        1.02980
H         -3.67800       -1.16930       -0.00040
