24
13527
O          0.61610        0.24760        0.60120
C         -0.66960        0.46650        0.01680
C         -1.08650       -0.78210       -0.78520
C         -1.64230        0.77880        1.15490
C         -0.56260        1.67570       -0.91780
C         -1.16680       -2.06380        0.03630
C          1.58670       -0.05050       -0.38910
C          2.92490       -0.27220        0.28300
H         -2.08770       -0.60020       -1.20080
H         -0.45910       -0.95500       -1.66560
H         -2.66900        0.89020        0.79170
H         -1.62300       -0.00020        1.92450
H         -1.35500        1.70710        1.66300
H         -1.55920        2.05360       -1.17500
H         -0.00070        2.49280       -0.45100
H         -0.07590        1.44070       -1.87040
H         -1.43130       -2.90460       -0.61350
H         -1.93580       -1.99790        0.81130
H         -0.21140       -2.29950        0.51420
H          1.37090       -0.97550       -0.92710
H          1.72280        0.76900       -1.09900
H          3.70070       -0.50620       -0.45200
H          3.22770        0.61910        0.84270
H          2.86320       -1.09430        1.00400
