29
13558
C          0.26370        0.55530        0.43980
C         -1.23870        0.18650        0.48590
C          1.23260       -0.55090       -0.03580
C         -1.76600       -0.23840       -0.89870
C          2.69730       -0.06020       -0.03320
C         -2.02220        1.38060        1.04770
C          1.13150       -1.81040        0.83150
C         -3.24350       -0.60790       -0.90830
C          2.94540        1.14540       -0.92890
H          0.36710        1.42930       -0.21460
H          0.57620        0.88230        1.44080
H         -1.37690       -0.64650        1.18560
H          0.98410       -0.82690       -1.06750
H         -1.59330        0.56220       -1.62820
H         -1.20930       -1.11360       -1.25060
H          3.34670       -0.87670       -0.37340
H          3.01010        0.18500        0.98930
H         -3.06650        1.11750        1.24100
H         -2.00420        2.22850        0.35470
H         -1.59530        1.71300        2.00020
H          1.30750       -1.57960        1.88760
H          0.14630       -2.27780        0.74250
H          1.86990       -2.55780        0.52110
H         -3.46510       -1.36320       -0.14780
H         -3.87840        0.26490       -0.73060
H         -3.51960       -1.01940       -1.88470
H          2.47680        2.04940       -0.52980
H          4.02030        1.34180       -1.00010
H          2.56620        0.97040       -1.94060
