31
13576
O          2.93550       -1.31240       -0.01170
C         -0.94540        0.55460       -0.10940
C         -2.16160       -0.37390       -0.09370
C          0.36000       -0.24320       -0.08860
C         -3.49750        0.37310       -0.04120
C          1.57590        0.68050       -0.06570
C         -4.70960       -0.55450        0.04880
C          2.88960       -0.08340       -0.00670
C         -6.00390        0.23560        0.17120
C          4.14300        0.77430        0.05450
C          5.41400       -0.05080        0.14240
H         -0.97930        1.18950       -1.00280
H         -0.98280        1.21920        0.76230
H         -2.14230       -1.01460       -0.98390
H         -2.09390       -1.03920        0.77620
H          0.40820       -0.89740       -0.96790
H          0.37870       -0.89670        0.79260
H         -3.58970        1.00840       -0.93090
H         -3.49420        1.04420        0.82690
H          1.58820        1.30440       -0.96620
H          1.52930        1.33460        0.81220
H         -4.75470       -1.19290       -0.84090
H         -4.60880       -1.21460        0.91800
H         -6.85870       -0.44520        0.23130
H         -6.14870        0.88750       -0.69610
H         -6.00080        0.85720        1.07220
H          4.17280        1.39940       -0.84400
H          4.06930        1.42460        0.93240
H          5.41170       -0.68260        1.03680
H          6.29050        0.60290        0.18760
H          5.51970       -0.70460       -0.72970
