29
136827
C          0.00000       -0.34630        0.01160
C          1.25150        0.58270        0.09510
C         -1.25140        0.58280        0.09490
C          0.00000       -1.12550       -1.31620
C          0.00000       -1.34910        1.17970
C          2.61950       -0.09810       -0.03100
C         -2.61950       -0.09810       -0.03110
C          3.74670        0.92580       -0.00150
C         -3.74680        0.92570       -0.00140
H          1.22370        1.13250        1.04580
H          1.17710        1.34130       -0.69640
H         -1.22370        1.13270        1.04550
H         -1.17700        1.34120       -0.69670
H         -0.87350       -1.77900       -1.40460
H          0.00020       -0.44370       -2.17360
H          0.87360       -1.77910       -1.40450
H          0.87760       -2.00290        1.15060
H         -0.00010       -0.83000        2.14430
H         -0.87750       -2.00300        1.15050
H          2.76980       -0.80950        0.78710
H          2.69240       -0.65340       -0.97090
H         -2.76960       -0.80950        0.78710
H         -2.69240       -0.65340       -0.97090
H          4.71580        0.42440       -0.08830
H          3.65570        1.63450       -0.83080
H          3.73920        1.49010        0.93650
H         -4.71580        0.42430       -0.08810
H         -3.65590        1.63440       -0.83080
H         -3.73920        1.49010        0.93660
