24
137240
O         -0.87260       -0.54490       -0.09730
C          1.51510       -0.38200       -0.17310
C          0.22290        0.26750        0.30120
C         -2.11310        0.01070        0.31800
C          2.73870        0.43290        0.23630
C         -2.27920        1.38760       -0.30660
C         -3.24080       -0.93050       -0.07680
C          4.02900       -0.24130       -0.20170
H          1.48530       -0.50210       -1.26340
H          1.58090       -1.39720        0.23820
H          0.22980        0.37230        1.39240
H          0.17600        1.25960       -0.15670
H         -2.11880        0.10030        1.41170
H          2.75400        0.56140        1.32480
H          2.68610        1.43370       -0.20800
H         -3.31810        1.72670       -0.22820
H         -1.67450        2.14480        0.20290
H         -1.99670        1.38700       -1.36510
H         -4.21310       -0.55010        0.25060
H         -3.08490       -1.91960        0.36740
H         -3.26680       -1.07420       -1.16260
H          4.12870       -1.23170        0.25390
H          4.06060       -0.35840       -1.28960
H          4.89230        0.35980        0.10050
