42
137755
C          3.68800       -0.25830        0.32490
C          4.92400       -1.03070       -0.12550
C          3.91010        1.11020       -0.31110
C          6.05670       -0.01440       -0.01780
C          5.40250        1.36420       -0.12530
C          2.38520       -0.91220       -0.10090
C          1.17670       -0.08220        0.33450
C         -0.16460       -0.70800       -0.06130
C         -1.36970        0.16040        0.30920
C         -2.70720       -0.43710       -0.13980
C         -3.91530        0.41660        0.25180
C         -5.22350       -0.23060       -0.20850
C         -6.42930        0.63860        0.14780
C         -7.73360       -0.01670       -0.27800
H          3.70970       -0.15670        1.41860
H          5.10900       -1.91710        0.48930
H          4.82170       -1.36000       -1.16690
H          3.66830        1.09110       -1.38100
H          3.31500        1.90000        0.15730
H          2.31820       -1.91370        0.34120
H          2.36210       -1.04540       -1.18970
H          6.56510       -0.10940        0.94860
H          6.80670       -0.17110       -0.79960
H          5.81430        1.94760       -0.95490
H          5.58120        1.93130        0.79560
H          1.22940        0.91620       -0.11450
H          1.19970        0.05610        1.42250
H         -0.17100       -0.88410       -1.14410
H         -0.26220       -1.68880        0.41990
H         -1.38560        0.30740        1.39610
H         -1.25310        1.15300       -0.14320
H         -2.81540       -1.43740        0.29770
H         -2.69310       -0.56760       -1.22900
H         -3.81780        1.41290       -0.19610
H         -3.93300        0.55080        1.34000
H         -5.32850       -1.21690        0.25970
H         -5.19490       -0.38930       -1.29330
H         -6.34070        1.61640       -0.33990
H         -6.45390        0.81630        1.22920
H         -8.58240        0.62210       -0.01460
H         -7.86820       -0.98250        0.21940
H         -7.75500       -0.18110       -1.36000
