32
14070
C         -0.60540        0.20230        0.51130
C          0.77290       -0.16060       -0.05020
C         -1.72010       -0.53660       -0.23540
C          1.88520        0.60270        0.67530
C         -3.13440       -0.15520        0.23970
C          3.30020        0.22350        0.20050
C         -3.34100        1.35460        0.09430
C         -4.22940       -0.90110       -0.52430
C          3.58580       -1.27140        0.34900
C          3.48620        0.64180       -1.26030
H         -0.72700        1.28580        0.41680
H         -0.65210       -0.04200        1.57900
H          0.91240       -1.24130        0.05720
H          0.79020        0.06910       -1.12100
H         -1.58160       -1.61780       -0.10950
H         -1.63250       -0.33430       -1.31080
H          1.73380        1.68220        0.55000
H          1.81350        0.40170        1.75190
H         -3.23010       -0.41450        1.30180
H          4.02010        0.77870        0.81470
H         -3.09370        1.69930       -0.91550
H         -2.73990        1.91860        0.81350
H         -4.38600        1.62090        0.29030
H         -4.10340       -1.98360       -0.41820
H         -4.20170       -0.66010       -1.59230
H         -5.22160       -0.64010       -0.14160
H          3.36690       -1.61110        1.36670
H          3.00550       -1.87970       -0.35160
H          4.64450       -1.47420        0.15220
H          2.87640        0.04590       -1.94640
H          4.53210        0.50990       -1.55930
H          3.23400        1.69780       -1.40270
