29
14462
C         -1.21660        0.09560        0.09300
C          0.19060       -0.59630        0.29640
C          1.40620        0.39070        0.36950
C         -1.46670        1.12780        1.21790
C         -2.35400       -0.94770        0.18650
C         -1.34790        0.81740       -1.25790
C          0.45400       -1.74450       -0.69530
C          1.63440        1.23490       -0.89120
C          2.70010       -0.37790        0.68110
H          0.14290       -1.07720        1.28590
H          1.25160        1.07480        1.21220
H         -0.77650        1.97510        1.15830
H         -2.48020        1.54170        1.15580
H         -1.35640        0.66810        2.20640
H         -2.25780       -1.55710        1.09180
H         -2.36440       -1.61820       -0.67880
H         -3.33740       -0.46360        0.22010
H         -0.90090        1.81140       -1.26340
H         -2.40660        0.98910       -1.49350
H         -0.94100        0.23270       -2.08700
H          0.58520       -1.38980       -1.72050
H          1.34580       -2.31660       -0.42250
H         -0.36350       -2.47060       -0.69600
H          2.66910        1.59750       -0.92840
H          1.02150        2.13760       -0.87840
H          1.45900        0.68000       -1.81550
H          3.49550        0.32180        0.96300
H          3.06390       -0.94500       -0.18170
H          2.56050       -1.06550        1.52170
