27
15505
C         -0.09740       -0.28550       -0.27560
C          0.33260        1.09160        0.24800
C          0.89590       -1.37060        0.16130
C          1.76240        1.43110       -0.16690
C          2.32480       -1.02700       -0.25330
C          2.74540        0.34610        0.26140
C         -1.50980       -0.62520        0.19670
C         -2.52600        0.38130       -0.33160
C         -3.92790        0.05820        0.16010
H         -0.09640       -0.25170       -1.37400
H          0.25540        1.12020        1.34220
H         -0.30860        1.88720       -0.14270
H          0.61490       -2.33480       -0.27880
H          0.85710       -1.49540        1.25100
H          2.05710        2.38960        0.27520
H          1.80720        1.55460       -1.25610
H          2.40150       -1.04610       -1.34740
H          3.01250       -1.79010        0.12830
H          3.74740        0.58830       -0.11010
H          2.80740        0.32180        1.35630
H         -1.54560       -0.64960        1.29330
H         -1.78200       -1.62940       -0.15170
H         -2.51770        0.38670       -1.42760
H         -2.30090        1.39700        0.00440
H         -4.24110       -0.93640       -0.17330
H         -3.97740        0.08580        1.25340
H         -4.64470        0.78750       -0.23040
