8
15586
Cl         1.45600       -0.91230        0.26190
Cl        -1.45700       -0.91080        0.26210
F          0.00010        0.46360       -1.33600
C          0.00000        0.06290       -0.03580
C          0.00090        1.29670        0.84770
H          0.00090        1.04230        1.91300
H          0.87850        1.91940        0.64120
H         -0.87610        1.92040        0.64150
