7
7855
N         -1.76650       -0.21480        0.00000
C          0.71190        0.50150        0.00000
C          1.70570       -0.39170        0.00000
C         -0.65110        0.10500        0.00000
H          0.94000        1.56210        0.00000
H          2.73870       -0.06020        0.00000
H          1.51840       -1.46060        0.00000
