12
7904
O         -0.18880        0.67290       -0.20030
O          0.95940       -1.34050        0.02510
C          2.11730        0.76210        0.17350
C          0.91400       -0.11730       -0.00210
C         -1.36030       -0.03480       -0.38660
C         -2.44160        0.05760        0.39040
H          1.97420        1.41940        1.03490
H          2.28480        1.34680       -0.73440
H          2.99800        0.13940        0.35530
H         -1.31450       -0.67610       -1.25710
H         -3.32810       -0.52740        0.17340
H         -2.45630        0.71610        1.25150
