27
16269
C          0.74700        0.28520        0.32910
C          1.13810       -1.06240       -0.26950
C          1.91710        1.17430       -0.07910
C          2.64060       -1.15620       -0.02250
C          3.14010        0.28330        0.11190
C         -0.59440        0.79480       -0.16830
C         -1.71660       -0.15840        0.21340
C         -3.06580        0.37970       -0.26040
C         -4.20610       -0.54030        0.14540
H          0.72710        0.20200        1.42450
H          0.93890       -1.08650       -1.34800
H          0.60990       -1.90280        0.19130
H          1.97720        2.08720        0.52140
H          1.83600        1.46940       -1.13260
H          3.14450       -1.68740       -0.83630
H          2.84290       -1.70680        0.90350
H          3.56960        0.43460        1.10910
H          3.92070        0.51450       -0.61990
H         -0.57340        0.92180       -1.25810
H         -0.78580        1.78600        0.26120
H         -1.55680       -1.14530       -0.23510
H         -1.73590       -0.29400        1.30170
H         -3.06210        0.48910       -1.35120
H         -3.24180        1.37460        0.16510
H         -4.25870       -0.64370        1.23380
H         -4.07960       -1.53710       -0.28910
H         -5.16160       -0.13640       -0.20380
