32
16319
C          2.36320        0.55240       -0.20200
C          0.95940        0.60890       -0.84020
C         -0.20850        0.39020        0.12900
C         -1.54790        0.39060       -0.61740
C         -2.76200        0.14910        0.29890
C          2.71600       -0.80610        0.43190
C          2.55670        1.67010        0.82820
C         -2.67890       -1.18550        1.04120
C         -4.05150        0.20170       -0.52450
C          2.65350       -1.97140       -0.54510
H          3.08380        0.73620       -1.01080
H          0.83590        1.58900       -1.31990
H          0.90190       -0.12580       -1.65220
H         -0.07140       -0.56770        0.63780
H         -0.22210        1.17380        0.89420
H         -1.67010        1.35400       -1.12860
H         -1.52460       -0.37940       -1.39960
H         -2.80410        0.95340        1.04420
H          2.06580       -1.01600        1.28870
H          3.73760       -0.75330        0.82980
H          1.93790        1.51470        1.71760
H          2.30320        2.64520        0.39930
H          3.60120        1.71350        1.15560
H         -1.86370       -1.18880        1.77070
H         -2.52340       -2.01800        0.34670
H         -3.60330       -1.37850        1.59670
H         -4.14620        1.16450       -1.03770
H         -4.92960        0.08000        0.11850
H         -4.07310       -0.59000       -1.28130
H          1.62730       -2.17140       -0.86660
H          3.26530       -1.77590       -1.43130
H          3.03120       -2.88120       -0.06720
