22
7912
N         -0.00440        0.70830        0.00560
C          1.18090       -0.11970       -0.21280
C         -1.18110       -0.12120        0.21350
C          1.43670       -1.00810        1.00140
C          2.38130        0.77730       -0.49810
C         -1.42670       -1.00600       -1.00550
C         -2.38680        0.76950        0.49590
H          1.07820       -0.74540       -1.10520
H         -1.08190       -0.75470        1.10150
H          0.13940        1.31400        0.81350
H          2.43070       -1.46590        0.93240
H          1.41060       -0.43860        1.93760
H          0.72670       -1.83740        1.07570
H          2.20040        1.40830       -1.37560
H          3.27560        0.17780       -0.70030
H          2.60370        1.43390        0.35070
H         -2.42340       -1.45970       -0.94980
H         -1.38680       -0.43330       -1.93930
H         -0.71980       -1.83860       -1.07360
H         -2.22110        1.38870        1.38480
H         -3.28280        0.16570        0.67700
H         -2.59830        1.43730       -0.34700
