27
16715
N          5.42910       -0.69590       -0.03320
C         -0.56670       -0.30600       -0.01340
C         -1.86860        0.49750       -0.00650
C          0.65420        0.61790       -0.01160
C         -3.12530       -0.37770        0.02350
C          1.95870       -0.18620        0.01400
C         -4.45850        0.36990       -0.05400
C          3.20340        0.70200        0.04630
C         -5.67270       -0.54130        0.03260
C          4.44640       -0.08000        0.00220
H         -0.53910       -0.95410       -0.89750
H         -0.53680       -0.95830        0.86770
H         -1.88210        1.16630        0.86290
H         -1.90160        1.13670       -0.89750
H          0.63490        1.25830       -0.90150
H          0.61610        1.27720        0.86390
H         -3.07800       -1.08990       -0.81030
H         -3.10960       -0.97790        0.94220
H          1.96310       -0.84860        0.88940
H          1.99700       -0.83810       -0.86860
H         -4.50810        1.10310        0.75970
H         -4.50180        0.93440       -0.99290
H          3.19140        1.31690        0.95370
H          3.18300        1.39190       -0.80550
H         -5.67500       -1.26690       -0.78690
H         -6.59420        0.04580       -0.02880
H         -5.68110       -1.09160        0.97870
