35
17186
Cl         6.12150        1.38710       -0.45820
C         -0.56670       -0.49540       -0.24460
C          0.72140        0.17140        0.24350
C         -1.83530        0.25060        0.18280
C          1.98570       -0.61670       -0.11560
C         -3.15780       -0.35760       -0.29450
C          3.31500        0.02980        0.29070
C         -4.39170        0.39140        0.21320
C          4.53880       -0.82120       -0.06380
C         -5.68080       -0.26250       -0.28580
C          5.85930       -0.17630        0.34800
C         -6.90960        0.49940        0.18440
H         -0.54390       -0.56850       -1.33870
H         -0.61210       -1.52140        0.14070
H          0.67810        0.29440        1.33250
H          0.79060        1.17810       -0.18650
H         -1.85180        0.30900        1.27860
H         -1.77520        1.28450       -0.18040
H          1.92140       -1.60920        0.34830
H          1.99840       -0.78360       -1.20030
H         -3.16590       -0.37450       -1.39130
H         -3.20780       -1.40190        0.03810
H          3.37520        1.00920       -0.19650
H          3.30570        0.21380        1.37200
H         -4.38680        0.40750        1.30970
H         -4.35000        1.43360       -0.12590
H          4.45560       -1.79580        0.43220
H          4.54740       -1.01630       -1.14330
H         -5.73740       -1.29640        0.07410
H         -5.68010       -0.29960       -1.38150
H          5.88770       -0.00230        1.42800
H          6.69750       -0.82810        0.08410
H         -6.89950        1.52870       -0.18820
H         -6.95750        0.52990        1.27760
H         -7.81970        0.01440       -0.18230
