21
17326
C          1.18930        0.14530        0.36230
C         -1.18890        0.13970        0.35970
C         -0.00160        1.02110       -0.01770
C          0.76830       -1.25970       -0.07930
C         -0.76350       -1.25580       -0.10390
C          2.49400        0.60600       -0.26510
C         -2.49780        0.60350       -0.25600
H          1.30180        0.15230        1.45480
H         -1.29520        0.13240        1.45280
H         -0.00420        1.97010        0.52800
H         -0.00110        1.24370       -1.09210
H          1.15450       -2.01880        0.60950
H          1.15110       -1.50200       -1.07770
H         -1.11330       -1.46420       -1.12200
H         -1.17740       -2.03280        0.54760
H          3.31460       -0.06180        0.01670
H          2.43020        0.62030       -1.35830
H          2.74790        1.61660        0.07080
H         -2.75380        1.60880        0.09400
H         -2.43900        0.63230       -1.34930
H         -3.31470       -0.07080        0.02060
