9
178
O          0.60730       -1.16570        0.00180
N          0.75220        1.13060        0.00150
C         -1.42750        0.09690        0.00130
C          0.06800       -0.06180       -0.00460
H         -1.87680       -0.69060       -0.61010
H         -1.79170        0.01400        1.02880
H         -1.72740        1.06550       -0.40840
H          1.76670        1.14920        0.00310
H          0.28150        2.02980        0.00810
