50
17899
C          4.69270        0.57350        0.14570
C          3.42630       -0.23150       -0.16960
C          6.00010       -0.15840       -0.22640
C          2.13340        0.51830        0.17300
C          0.86820       -0.27400       -0.16700
C         -0.42440        0.48080        0.16340
C         -1.68920       -0.30140       -0.20070
C         -2.98200        0.45790        0.11850
C         -4.24660       -0.35330       -0.17610
C          7.24030        0.72050        0.04150
C         -5.53950        0.40930        0.13120
C          6.15220       -1.47830        0.53890
C         -6.80550       -0.38990       -0.18520
C          8.56030        0.05560       -0.32370
C         -8.06290        0.38730        0.20660
C         -9.32350       -0.41650       -0.07030
H          4.70440        0.82290        1.21440
H          4.65200        1.52530       -0.39870
H          3.42330       -1.17000        0.39400
H          3.42120       -0.49430       -1.23430
H          5.96880       -0.38990       -1.29920
H          2.13080        0.76230        1.24240
H          2.11690        1.47130       -0.36990
H          0.87950       -1.22490        0.37960
H          0.87600       -0.52210       -1.23550
H         -0.44020        0.71570        1.23470
H         -0.42830        1.43850       -0.37160
H         -1.67050       -0.54510       -1.27000
H         -1.68810       -1.25480        0.34210
H         -2.97960        0.74370        1.17760
H         -3.00420        1.38870       -0.46130
H         -4.22670       -1.27950        0.41130
H         -4.24630       -0.64780       -1.23280
H          7.27050        1.01920        1.09660
H          7.14540        1.64440       -0.54260
H         -5.55110        1.34460       -0.44210
H         -5.54190        0.68850        1.19230
H          6.21200       -1.30620        1.61890
H          5.31310       -2.15330        0.34980
H          7.04450       -2.02990        0.22890
H         -6.77950       -1.34300        0.35670
H         -6.83280       -0.62680       -1.25550
H          9.36880        0.79340       -0.28840
H          8.52860       -0.36020       -1.33570
H          8.82350       -0.74090        0.37820
H         -8.10610        1.33040       -0.35060
H         -8.02780        0.64130        1.27250
H         -9.32620       -1.35100        0.49970
H         -9.40610       -0.66220       -1.13390
H        -10.21000        0.15830        0.21550
