45
17900
C         -3.26990       -0.33700        0.27290
C         -3.48990        1.04000       -0.36810
C         -4.44380       -1.27650       -0.03430
C         -1.95210       -0.94780       -0.20010
C         -4.82710        1.64830        0.04830
C         -5.77950       -0.66420        0.38140
C         -5.99070        0.70810       -0.25060
C         -0.75880       -0.08320        0.20850
C          0.58790       -0.64820       -0.25530
C          1.78600        0.17880        0.21880
C          3.13510       -0.41850       -0.19410
C          4.33350        0.41960        0.25640
C          5.65250       -0.21390       -0.19170
C          6.85270        0.60120        0.28970
C          8.16410       -0.00670       -0.18190
H         -3.22120       -0.20550        1.36280
H         -2.71230        1.74950       -0.07060
H         -3.45290        0.95740       -1.46170
H         -4.46980       -1.50270       -1.10800
H         -4.30660       -2.23080        0.48810
H         -1.96030       -1.07280       -1.29010
H         -1.83330       -1.94860        0.23330
H         -4.80730        1.87430        1.12160
H         -4.97870        2.59910       -0.47520
H         -6.59750       -1.33330        0.09120
H         -5.81420       -0.57240        1.47400
H         -6.10000        0.59670       -1.33640
H         -6.92390        1.14590        0.12120
H         -0.74760        0.02720        1.29980
H         -0.83930        0.92190       -0.21560
H          0.69220       -1.67400        0.11930
H          0.59820       -0.70810       -1.35040
H          1.75450        0.26720        1.31170
H          1.70230        1.19580       -0.18390
H          3.22180       -1.42920        0.22380
H          3.15900       -0.52420       -1.28590
H          4.32120        0.51500        1.34890
H          4.25060        1.43160       -0.15800
H          5.67070       -0.28600       -1.28600
H          5.72320       -1.23560        0.20070
H          6.77910        1.62900       -0.08430
H          6.85230        0.65340        1.38460
H          8.28390       -1.02550        0.20010
H          8.20980       -0.04160       -1.27510
H          9.00880        0.59130        0.17440
