27
18145
S         -4.21290        0.95140        0.01070
C         -0.23340       -0.24310       -0.22060
C          1.02970        0.51300        0.20260
C         -1.49780        0.55570        0.11700
C          2.29280       -0.26750       -0.16810
C         -2.78610       -0.13510       -0.35540
C          3.58630        0.45910        0.20590
C         -3.02170       -1.49090        0.30390
C          4.84300       -0.34260       -0.09600
H         -0.24960       -1.21280        0.28870
H         -0.20210       -0.43950       -1.29900
H          1.01040        0.68940        1.28470
H          1.05280        1.49470       -0.28570
H         -1.53320        0.72060        1.20210
H         -1.41940        1.54440       -0.35440
H          2.29520       -0.46650       -1.24710
H          2.27170       -1.24320        0.33320
H         -2.75170       -0.26670       -1.44270
H          3.57150        0.69820        1.27600
H          3.63480        1.41340       -0.33190
H         -3.98160       -1.92330       -0.00110
H         -2.24970       -2.20940        0.01070
H         -3.01050       -1.41750        1.39720
H          5.73410        0.22480        0.18970
H          4.84670       -1.28610        0.45890
H          4.91170       -0.57190       -1.16400
H         -5.13770        0.20950       -0.61640
