13
8020
O          1.03530        0.16090       -0.59180
O         -1.05330        0.19910        0.58060
C         -0.00030        0.95640       -0.01540
C          1.69870       -0.64180        0.37560
C         -1.68040       -0.67460       -0.34890
H          0.42630        1.61500        0.74920
H         -0.41710        1.59590       -0.80120
H          2.14550       -0.01400        1.15260
H          2.49840       -1.19220       -0.12760
H          1.01330       -1.36550        0.82570
H         -0.98530       -1.44190       -0.70120
H         -2.07960       -0.11020       -1.19730
H         -2.51160       -1.17230        0.15800
