29
18314
C          0.71250        0.01850        0.38220
C         -0.84520        0.09060        0.51980
C          1.29510        1.24430       -0.36530
C          1.21280       -1.29880       -0.26270
C         -1.58220       -0.07800       -0.82570
C         -1.28110        1.37810        1.23710
C          2.81710        1.25050       -0.44980
C          0.77100       -2.56520        0.45820
C         -3.10000       -0.04000       -0.69380
H          1.12060        0.04500        1.40310
H         -1.15190       -0.73720        1.17270
H          0.89330        1.30020       -1.38280
H          0.99630        2.16500        0.14710
H          2.30830       -1.31260       -0.25360
H          0.91590       -1.35160       -1.31620
H         -1.31480       -1.03800       -1.27920
H         -1.27930        0.70340       -1.53100
H         -0.65150        1.57120        2.11220
H         -1.23310        2.24950        0.57630
H         -2.31090        1.29300        1.60000
H          3.26930        1.08640        0.53320
H          3.18830        0.48980       -1.14230
H          3.16410        2.22010       -0.82270
H         -0.30750       -2.72360        0.37120
H          1.26710       -3.43800        0.02130
H          1.03250       -2.52360        1.52020
H         -3.56420       -0.28770       -1.65410
H         -3.45600        0.95360       -0.40630
H         -3.44920       -0.76600        0.04700
