29
18591
C         -1.51410        0.63240       -0.07050
C         -0.26520       -0.15960        0.32820
C         -2.83180       -0.06390        0.31740
C          1.01010        0.54260       -0.14490
C          2.25740       -0.26460        0.21860
C          3.52850        0.42040       -0.28290
C         -2.88970       -1.45560       -0.31760
C         -4.06340        0.74350       -0.09550
C          4.76820       -0.39530        0.04710
H         -1.47970        1.62060        0.40520
H         -1.50210        0.80740       -1.15420
H         -0.24090       -0.28780        1.41680
H         -0.28000       -1.15810       -0.11960
H         -2.85860       -0.18240        1.40810
H          1.07100        1.53950        0.30840
H          0.96960        0.68330       -1.23200
H          2.31090       -0.39020        1.30690
H          2.18580       -1.26780       -0.21920
H          3.61920        1.41440        0.17030
H          3.47190        0.56260       -1.36840
H         -2.17040       -2.14160        0.13940
H         -3.87900       -1.90430       -0.17170
H         -2.69870       -1.41460       -1.39530
H         -4.04310        1.73770        0.36300
H         -4.10630        0.87260       -1.18220
H         -4.98420        0.24520        0.22530
H          4.72350       -1.38400       -0.42080
H          5.66530        0.11350       -0.31930
H          4.87210       -0.53090        1.12840
