47
18676411
C         -5.56370       -0.03550       -0.00540
C         -4.18980        0.68350        0.06090
C         -2.95760       -0.22960        0.03070
C         -1.66390        0.59210        0.03580
C         -0.43250       -0.31360       -0.03140
C          0.89250        0.45480       -0.00830
C          2.16190       -0.40220        0.01260
C         -6.66760        1.04040       -0.02420
C         -5.78160       -0.93570        1.22190
C         -5.68750       -0.88240       -1.28280
C          3.45250        0.41880       -0.02110
C          4.68660       -0.48720        0.00970
C          5.97760        0.33460        0.00910
C          7.24350       -0.52470        0.00950
C          8.52950        0.28690       -0.01720
H         -4.14890        1.29610        0.97160
H         -4.11930        1.38550       -0.78120
H         -2.96260       -0.89900        0.89770
H         -2.97140       -0.85490       -0.86820
H         -1.65690        1.27880       -0.81910
H         -1.62080        1.20470        0.94430
H         -0.47470       -0.92290       -0.94250
H         -0.45160       -1.01040        0.81590
H          0.90330        1.11060        0.87170
H          0.92660        1.11470       -0.88460
H          2.14440       -1.08280       -0.84770
H          2.15160       -1.02980        0.91220
H         -6.56550        1.69740       -0.89530
H         -6.62480        1.66660        0.87410
H         -7.66460        0.58710       -0.06550
H         -5.07120       -1.76850        1.24450
H         -5.66600       -0.36920        2.15260
H         -6.78850       -1.36880        1.21940
H         -5.00130       -1.73540       -1.27470
H         -6.70050       -1.28760       -1.38900
H         -5.47450       -0.28430       -2.17580
H          3.47340        1.10040        0.83770
H          3.47070        1.03740       -0.92640
H          4.67550       -1.15410       -0.86080
H          4.65890       -1.12130        0.90410
H          5.98970        0.98640       -0.87340
H          5.98980        0.99170        0.88760
H          7.24680       -1.16490        0.89980
H          7.22970       -1.19150       -0.86090
H          8.59640        0.94000        0.85860
H          8.57850        0.91060       -0.91540
H          9.39910       -0.37760       -0.01490
