25
18937
C          1.19180       -0.37500        0.02770
C          0.00060        0.58550       -0.01760
C          2.54810        0.33390       -0.02880
C         -1.32750       -0.17960        0.02910
C          3.73760       -0.62680       -0.00900
C         -2.54690        0.74420        0.01980
C          5.05870        0.12710        0.00650
C         -3.81290       -0.00200       -0.00410
C         -4.84950       -0.60730       -0.02360
H          1.13960       -0.97420        0.94520
H          1.12150       -1.07660       -0.81280
H          0.04620        1.18710       -0.93310
H          0.05600        1.27860        0.83030
H          2.59570        0.94790       -0.93680
H          2.62340        1.02230        0.82220
H         -1.35600       -0.80830        0.92860
H         -1.37960       -0.86270       -0.82880
H          3.68060       -1.26970        0.87700
H          3.70120       -1.28050       -0.88790
H         -2.52150        1.39220        0.90380
H         -2.50070        1.40130       -0.85670
H          5.15920        0.76020       -0.88080
H          5.13750        0.76320        0.89390
H          5.89630       -0.57730        0.01810
H         -5.76900       -1.14440       -0.04090
