44
19985548
C          4.96450       -0.04220       -0.01410
C          3.59890        0.69280        0.07350
C          2.35640       -0.20740        0.05220
C          1.04050        0.58010        0.07510
C         -0.20440       -0.30860        0.02230
C         -1.48480        0.53120        0.03670
C          5.17640       -0.96780        1.19490
C          4.96490       -0.90110       -1.29430
C          6.13150        0.95570       -0.09940
C         -2.73040       -0.35740        0.02180
C         -4.04280        0.43240        0.01260
C         -5.32600       -0.40400        0.02030
C         -6.60090        0.43670       -0.05230
C         -7.84390       -0.44030       -0.04920
H          3.57920        1.29810        0.98940
H          3.52550        1.40400       -0.76040
H          2.37140       -0.88540        0.91250
H          2.35160       -0.82830       -0.84930
H          1.00890        1.19480        0.98330
H          1.02420        1.27210       -0.77610
H         -0.17770       -0.92500       -0.88420
H         -0.20040       -0.99230        0.87960
H         -1.50100        1.16640        0.93050
H         -1.49840        1.19710       -0.83450
H         -2.70230       -1.00850       -0.86070
H         -2.71730       -1.01460        0.90010
H          5.11880       -0.40470        2.13300
H          4.43130       -1.76870        1.23660
H          6.16170       -1.44670        1.15520
H          4.69740       -0.30570       -2.17450
H          5.96010       -1.32440       -1.47620
H          4.27560       -1.74900       -1.22940
H          6.02890        1.60860       -0.97330
H          6.16450        1.59340        0.79100
H          7.09540        0.44060       -0.17790
H         -4.05190        1.07990       -0.87360
H         -4.05720        1.10110        0.88270
H         -5.30200       -1.09740       -0.82960
H         -5.34440       -1.01860        0.92870
H         -6.64070        1.12430        0.80020
H         -6.59190        1.04730       -0.96240
H         -7.89740       -1.04180        0.86390
H         -8.74460        0.17930       -0.10120
H         -7.84790       -1.11830       -0.90870
