20
8111
N          0.00120       -0.44170        0.00630
N         -3.64750        0.33120        0.00190
N          3.64680        0.33190       -0.01130
C         -1.20040        0.38560        0.00100
C          1.19980        0.38470        0.00750
C         -2.44570       -0.49580       -0.01090
C          2.44580       -0.49590        0.00550
H         -1.20580        1.03210       -0.88560
H         -1.21460        1.03180        0.88800
H          1.20980        1.03450        0.89180
H          1.20820        1.02820       -0.88140
H         -0.00150       -1.04900        0.82530
H         -2.45700       -1.15740        0.86300
H         -2.45690       -1.12690       -0.90660
H          2.45400       -1.15160       -0.87240
H          2.46850       -1.13690        0.89400
H         -3.66490        0.89890        0.84820
H         -4.47010       -0.26900        0.04400
H          3.64570        0.95360        0.79670
H          3.63360        0.93830       -0.83060
