28
20492
C          0.09760        0.18510       -0.00070
C          2.28410       -0.84260        0.00010
C          2.87750        0.41970        0.00000
C          0.89430       -0.96000       -0.00020
C         -1.34420        0.06420       -0.00010
C          0.69100        1.44740       -0.00080
C          2.08090        1.56470       -0.00050
C          3.11740       -2.08230        0.00110
C          4.36340        0.57030        0.00030
C         -2.03920        0.00770        1.20800
C         -2.03930        0.00600       -1.20790
C         -3.42940       -0.10680        1.20810
C         -3.42950       -0.10850       -1.20760
C         -4.12460       -0.16490        0.00030
H          0.43100       -1.94470        0.00010
H          0.08470        2.35030       -0.00110
H          2.52670        2.55580       -0.00060
H          3.74940       -2.12290       -0.89200
H          3.74740       -2.12280        0.89550
H          2.49950       -2.98700        0.00040
H          4.79790        0.11090       -0.89350
H          4.66440        1.62380        0.00050
H          4.79760        0.11070        0.89410
H         -1.51290        0.05210        2.15860
H         -1.51320        0.04900       -2.15870
H         -3.97060       -0.15060        2.14870
H         -3.97090       -0.15370       -2.14810
H         -5.20690       -0.25390        0.00050
