36
8183
C          0.61620       -0.52450       -0.00230
C          1.87210        0.32210        0.21170
C         -0.65230        0.27540        0.30290
C          3.13970       -0.46670       -0.12470
C         -1.90870       -0.56270        0.05690
C          4.39210        0.39350        0.05860
C         -3.21150        0.20000        0.32560
C          5.68890       -0.34080       -0.28790
C         -4.50020       -0.56860        0.01490
C          6.93830        0.50150       -0.08150
C         -5.73980        0.24580        0.23980
C         -6.63500        0.52500       -0.71410
H          0.65610       -1.41190        0.64090
H          0.58550       -0.87800       -1.04010
H          1.91470        0.66120        1.25390
H          1.82080        1.21860       -0.41840
H         -0.63500        0.61340        1.34600
H         -0.68290        1.17220       -0.32780
H          3.20530       -1.35300        0.51770
H          3.08960       -0.82080       -1.16140
H         -1.88240       -1.45740        0.69090
H         -1.91090       -0.91160       -0.98320
H          4.31180        1.29000       -0.56880
H          4.44280        0.73920        1.09870
H         -3.22490        0.51330        1.37780
H         -3.20140        1.12330       -0.26880
H          5.76850       -1.24570        0.32650
H          5.65160       -0.66930       -1.33340
H         -4.55050       -1.45880        0.65340
H         -4.46150       -0.92890       -1.02060
H          6.91180        1.39830       -0.70850
H          7.02910        0.81520        0.96320
H          7.83210       -0.07270       -0.34460
H         -5.91660        0.61770        1.24570
H         -7.51510        1.11580       -0.48510
H         -6.50820        0.17370       -1.73210
