54
8217
C         -0.56250        0.41410       -0.07700
C         -1.84240       -0.42370       -0.03910
C          0.68200       -0.47650       -0.09480
C         -3.12020        0.42050        0.01120
C          1.96430        0.35900       -0.10020
C         -4.39810       -0.42020        0.07490
C          3.20700       -0.53380       -0.08420
C         -5.68010        0.42060        0.06610
C          4.52120        0.25330       -0.05730
C         -6.95750       -0.42340        0.05090
C          5.76210       -0.64230       -0.01560
C         -8.23780        0.41460       -0.02900
C          7.07790        0.14450        0.02420
C         -9.51800       -0.41980        0.03020
C          8.31900       -0.75340        0.09110
C        -10.75600        0.46410        0.02300
C          9.65320       -0.05740        0.07060
C          9.88600        1.26010        0.05510
H         -0.57050        1.05710       -0.96520
H         -0.53180        1.07260        0.79950
H         -1.87620       -1.07370       -0.92230
H         -1.81710       -1.08250        0.83790
H          0.65980       -1.12310       -0.98040
H          0.67570       -1.13190        0.78480
H         -3.08270        1.08270        0.88480
H         -3.15600        1.06630       -0.87480
H          1.98450        1.00080       -0.98900
H          1.97810        1.01830        0.77610
H         -4.37980       -1.04110        0.97900
H         -4.41580       -1.10690       -0.78060
H          3.19700       -1.18470       -0.96730
H          3.16800       -1.19080        0.79360
H         -5.68820        1.07690        0.94490
H         -5.67330        1.07240       -0.81630
H          4.57180        0.89940       -0.94230
H          4.52590        0.91410        0.81830
H         -6.92860       -1.11110       -0.80320
H         -6.98600       -1.04310        0.95560
H          5.76210       -1.29950       -0.89390
H          5.70670       -1.29210        0.86650
H         -8.22770        1.00000       -0.95680
H         -8.24060        1.13490        0.79870
H          7.06350        0.81340        0.89390
H          7.13070        0.77960       -0.86920
H         -9.52010       -1.03280        0.93880
H         -9.55360       -1.10490       -0.82450
H          8.26920       -1.36430        1.00070
H          8.29540       -1.44960       -0.75660
H        -10.79830        1.07220       -0.88630
H        -10.76400        1.13610        0.88710
H        -11.66060       -0.15100        0.06280
H         10.51910       -0.71700        0.07320
H         10.90520        1.63220        0.04320
H          9.08740        1.99210        0.05510
