39
21832
C          2.10770       -0.37510       -0.28480
C          2.30320        1.03910        0.27850
C          3.25880       -1.29650        0.14040
C          0.76400       -0.95110        0.15810
C          3.66350        1.61620       -0.10680
C          4.61760       -0.71550       -0.24440
C          4.80470        0.69340        0.30970
C         -0.39970       -0.06890       -0.29390
C         -1.74590       -0.66660        0.12230
C         -2.90660        0.23760       -0.29800
C         -4.27540       -0.27720        0.15660
C         -5.42770        0.66310       -0.19930
C         -6.76410        0.10150        0.26160
H          2.11300       -0.31120       -1.38180
H          2.20880        1.02710        1.37170
H          1.54750        1.73060       -0.10600
H          3.14220       -2.28150       -0.32710
H          3.22940       -1.45460        1.22610
H          0.64160       -1.95680       -0.26300
H          0.74030       -1.05920        1.24990
H          3.79410        2.59780        0.36280
H          3.69960        1.77380       -1.19180
H          4.70820       -0.69300       -1.33740
H          5.41580       -1.36710        0.12870
H          5.75810        1.10420       -0.04090
H          4.85790        0.65060        1.40460
H         -0.33380        0.92540        0.15800
H         -0.37240        0.05890       -1.38250
H         -1.86960       -1.65700       -0.33200
H         -1.76590       -0.80430        1.21020
H         -2.90700        0.34590       -1.38970
H         -2.75070        1.24050        0.11910
H         -4.25830       -0.42760        1.24330
H         -4.45430       -1.26070       -0.29550
H         -5.45620        0.82040       -1.28360
H         -5.26590        1.64160        0.26720
H         -6.96890       -0.86360       -0.21280
H         -6.77730       -0.03900        1.34720
H         -7.57450        0.78830       -0.00190
