9
22344
Cl        -1.66360       -2.06510       -0.00080
Cl         1.66350       -2.06510        0.00080
Cl        -2.87380        1.13940        0.00030
Cl         2.87390        1.13930       -0.00070
S         -0.00020        1.83430        0.00020
C         -0.71230       -0.63410       -0.00010
C          0.71250       -0.63400        0.00020
C         -1.22970        0.64250       -0.00010
C          1.22970        0.64270        0.00020
