24
8657
C          0.11330       -0.65770        0.23230
C          0.11350        0.65770       -0.23180
C          1.39390       -1.38300        0.48730
C          1.39420        1.38220       -0.48720
C         -1.09490       -1.31530        0.46410
C         -1.09450        1.31550       -0.46400
C          1.88940       -2.13280       -0.74550
C          1.89040        2.13270        0.74500
C         -2.30280       -0.65730        0.23190
C         -2.30260        0.65800       -0.23210
H          2.17870       -0.72050        0.86390
H          1.24240       -2.10900        1.29760
H          2.17880        0.71920       -0.86350
H          1.24300        2.10760       -1.29800
H         -1.11090       -2.34090        0.82340
H         -1.11020        2.34110       -0.82350
H          1.15950       -2.88260       -1.06980
H          2.82630       -2.65170       -0.51870
H          2.07040       -1.45970       -1.58910
H          1.16070        2.88290        1.06890
H          2.82740        2.65120        0.51770
H          2.07120        1.46010        1.58900
H         -3.24340       -1.16940        0.41190
H         -3.24320        1.17020       -0.41250
