45
23194
C         -1.88730        0.44460       -0.47240
C         -3.10510       -0.04010        0.32050
C         -0.55060        0.06190        0.16700
C         -4.47290        0.26440       -0.29910
C          0.62580        0.58330       -0.66180
C         -5.64810       -0.29840        0.50430
C          1.99440        0.20700       -0.08180
C         -6.98330        0.02860       -0.16970
C          3.20460        0.63290       -0.92280
C         -8.19630       -0.48790        0.60680
C          4.53070        0.19940       -0.35000
C         -9.52360       -0.18770       -0.07200
C          5.21260        1.03210        0.53750
C          5.07520       -1.03410       -0.70730
C          6.43900        0.63120        1.06750
C          6.30150       -1.43490       -0.17710
C          6.98340       -0.60220        0.71030
H         -1.93520        0.02770       -1.48590
H         -1.94380        1.53520       -0.57630
H         -3.06880        0.39970        1.32540
H         -3.02020       -1.12600        0.45650
H         -0.48490       -1.02900        0.25500
H         -0.49570        0.47320        1.18180
H         -4.58390        1.35140       -0.39650
H         -4.50060       -0.14840       -1.31520
H          0.56180        1.67530       -0.74320
H          0.55250        0.18470       -1.68130
H         -5.54200       -1.38540        0.60170
H         -5.63410        0.12110        1.51720
H          2.08370        0.64160        0.92250
H          2.02670       -0.88180        0.05630
H         -7.07310        1.11550       -0.28930
H         -6.99340       -0.40260       -1.17860
H          3.20040        1.72420       -1.04190
H          3.10380        0.22890       -1.93860
H         -8.20190       -0.04310        1.60910
H         -8.10610       -1.57250        0.74120
H         -9.56870       -0.65100       -1.06260
H        -10.35350       -0.57790        0.52540
H         -9.66590        0.89110       -0.19040
H          4.79750        1.99440        0.82480
H          4.55240       -1.69240       -1.39610
H          6.96970        1.27920        1.75890
H          6.72540       -2.39560       -0.45460
H          7.93810       -0.91440        1.12320
