24
23313
C          0.65020        0.71880       -0.28820
C          0.65020       -0.71890        0.28820
C         -0.63140        1.46780        0.11620
C         -0.63150       -1.46780       -0.11580
C         -1.89030        0.70640       -0.28460
C         -1.89040       -0.70620        0.28430
C          1.87170        1.52890        0.15550
C          1.87140       -1.52900       -0.15560
H          0.67300        0.65620       -1.38500
H          0.67320       -0.65620        1.38500
H         -0.64890        2.45850       -0.35400
H         -0.63880        1.63210        1.20150
H         -0.64920       -2.45840        0.35470
H         -0.63890       -1.63280       -1.20100
H         -1.95850        0.66180       -1.37850
H         -2.77590        1.24630        0.06900
H         -1.95910       -0.66150        1.37820
H         -2.77590       -1.24610       -0.06950
H          1.95360        1.55750        1.24720
H          2.79790        1.10790       -0.24680
H          1.80500        2.56110       -0.20540
H          2.79770       -1.10800        0.24650
H          1.80470       -2.56120        0.20540
H          1.95310       -1.55780       -1.24730
