9
2365
O         -0.29270        1.01530        0.00030
O          1.77070       -0.04180       -0.00010
C         -0.57360       -1.08400        0.00020
C         -1.46490        0.15430       -0.00030
C          0.56060       -0.04380       -0.00010
H         -0.61460       -1.69820       -0.90070
H         -0.61460       -1.69760        0.90160
H         -2.07100        0.30000       -0.89880
H         -2.07190        0.30020        0.89750
