21
10686
C          0.00010       -0.75810        0.00010
C         -1.20800       -0.06070        0.00000
C          1.20810       -0.06050        0.00010
C         -1.20830        1.33410       -0.00010
C          1.20780        1.33450        0.00000
C          0.00030       -2.25390       -0.00010
C         -0.00040        2.03170        0.00000
C         -2.51510       -0.78390        0.00000
C          2.51540       -0.78320        0.00000
H         -2.14030        1.89310        0.00130
H          2.13960        1.89370        0.00150
H          0.86640       -2.67150        0.52230
H         -0.86570       -2.67180        0.52230
H          0.00040       -2.62710       -1.02940
H         -0.00050        3.11780        0.00060
H         -3.35420       -0.09740       -0.16030
H         -2.67970       -1.28040        0.96190
H         -2.55590       -1.52160       -0.80830
H          2.68030       -1.27950        0.96180
H          2.55650       -1.52090       -0.80830
H          3.35430       -0.09640       -0.16050
