24
10703
C          1.76190       -0.16320        0.00020
C          0.28570        0.06260        0.00010
C         -0.60460       -1.01140        0.00040
C          2.44210        0.40250        1.26040
C          2.44220        0.40120       -1.26050
C         -0.19940        1.37050       -0.00030
C         -1.97970       -0.77720        0.00030
C         -0.10920       -2.42040       -0.00010
C         -1.57440        1.60460       -0.00040
C         -2.46450        0.53070       -0.00010
H          2.00050       -1.23070        0.00090
H          2.36650        1.49380        1.31400
H          3.50640        0.14330        1.27170
H          1.98630       -0.01100        2.16700
H          1.98650       -0.01340       -2.16670
H          3.50650        0.14200       -1.27150
H          2.36660        1.49250       -1.31530
H          0.47340        2.22360       -0.00060
H         -2.68760       -1.60180        0.00040
H          0.48300       -2.62560       -0.89800
H          0.48320       -2.62610        0.89760
H         -0.93920       -3.13630       -0.00020
H         -1.95220        2.62280       -0.00070
H         -3.53520        0.71320       -0.00020
