24
10870
C          2.39690        0.05060       -0.11720
C          1.27200        0.00750       -1.16990
C         -0.11670       -0.00190       -0.57900
C          2.25780        1.25080        0.82270
C          2.39380       -1.24510        0.69780
C         -0.72220       -1.21380       -0.28520
C         -0.76220        1.20120       -0.34070
C         -2.00580       -1.22250        0.26060
C         -2.04590        1.19250        0.20520
C         -2.66770       -0.01940        0.50580
H          3.35420        0.12660       -0.64770
H          1.40090       -0.86800       -1.82020
H          1.37040        0.87480       -1.83680
H          1.39450        1.16700        1.49010
H          2.17760        2.18490        0.25720
H          3.14600        1.33010        1.45970
H          3.28890       -1.28970        1.32880
H          1.53080       -1.32130        1.36630
H          2.41180       -2.12450        0.04530
H         -0.22050       -2.15750       -0.47810
H         -0.29150        2.15130       -0.57590
H         -2.49070       -2.16610        0.49310
H         -2.56190        2.12920        0.39480
H         -3.66730       -0.02630        0.93010
