12
10943
Cl        -2.69870       -1.16790       -0.00070
Cl         2.69910       -1.16770       -0.00030
C          0.00000       -1.00570        0.00050
C         -1.20800       -0.30820        0.00050
C          1.20800       -0.30820        0.00010
C         -1.20800        1.08670        0.00020
C          1.20780        1.08680       -0.00030
C         -0.00010        1.78420       -0.00020
H          0.00000       -2.09370        0.00050
H         -2.14160        1.64350       -0.00010
H          2.14140        1.64360       -0.00060
H         -0.00020        2.87030       -0.00050
