26
11215
C         -0.23040        0.46110       -0.17250
C          0.88750       -0.49410        0.38920
C         -1.54290       -0.30750       -0.52260
C         -0.56230        1.55440        0.87020
C          0.22840        1.17950       -1.46250
C          1.28800       -1.61840       -0.57770
C          2.16640        0.23350        0.83480
C         -2.23470       -1.00840        0.64110
H          0.49130       -0.97850        1.29120
H         -1.35240       -1.04230       -1.31340
H         -2.26520        0.39960       -0.95330
H          0.25100        2.28160        0.96760
H         -0.74310        1.12520        1.86130
H         -1.45650        2.11850        0.58050
H         -0.54380        1.87120       -1.82020
H          1.13520        1.77050       -1.30140
H          0.42490        0.47090       -2.27330
H          2.02570       -2.28000       -0.10920
H          1.73820       -1.22670       -1.49470
H          0.43350       -2.24380       -0.84940
H          2.88460       -0.48010        1.25490
H          1.96320        0.97000        1.61710
H          2.66060        0.73950        0.00040
H         -1.60120       -1.78370        1.08020
H         -2.52450       -0.30510        1.42640
H         -3.14880       -1.49620        0.28610
