32
26056
C          1.19890       -0.30900        0.38540
C         -0.24940       -0.34210       -0.15870
C         -1.29980        0.13980        0.84950
C         -2.74470        0.02570        0.32610
C          1.69750        1.11230        0.72550
C          2.11820       -1.06320       -0.60160
C         -3.10540       -1.40340       -0.08210
C         -2.94170        0.96860       -0.86330
C          1.76850        2.07190       -0.45390
C          3.55780       -1.20060       -0.12690
H          1.20530       -0.87840        1.32560
H         -0.30330        0.23900       -1.08460
H         -0.47230       -1.37980       -0.43160
H         -1.10940        1.18280        1.12580
H         -1.21020       -0.45090        1.76980
H         -3.41890        0.33860        1.13290
H          2.69010        1.05100        1.18660
H          1.05380        1.55270        1.49540
H          1.72000       -2.07470       -0.75320
H          2.10610       -0.57880       -1.58480
H         -4.17930       -1.47590       -0.28790
H         -2.58240       -1.72510       -0.98800
H         -2.87380       -2.10950        0.72210
H         -4.00090        1.00620       -1.14170
H         -2.38670        0.64640       -1.74970
H         -2.63110        1.98860       -0.61340
H          2.44370        1.70670       -1.23260
H          0.78270        2.24040       -0.89640
H          2.14730        3.04320       -0.11860
H          4.11520       -1.85350       -0.80660
H          4.06980       -0.23430       -0.10880
H          3.60210       -1.63880        0.87500
