26
11255
C         -1.03020       -0.13610       -0.03420
C          0.45750        0.27330       -0.36750
C          1.50750       -0.70540        0.21890
C         -1.37350       -1.55360       -0.52940
C         -1.27500       -0.08660        1.49130
C         -2.02470        0.85490       -0.67960
C          0.79030        1.71720        0.04890
C          2.94790       -0.36370       -0.14830
H          0.55820        0.23270       -1.46170
H          1.30990       -1.71780       -0.14860
H          1.43660       -0.73990        1.31110
H         -1.15720       -1.65570       -1.59840
H         -0.80890       -2.32270        0.00690
H         -2.43600       -1.78030       -0.38260
H         -1.08680        0.90730        1.90860
H         -2.31770       -0.33660        1.72280
H         -0.65180       -0.80700        2.02980
H         -1.98400        1.84770       -0.22110
H         -3.05790        0.50450       -0.56880
H         -1.82820        0.96270       -1.75200
H          1.75850        2.02790       -0.35720
H          0.83910        1.82560        1.13660
H          0.06730        2.43830       -0.33950
H          3.28990        0.54460        0.35620
H          3.05870       -0.23040       -1.22890
H          3.61360       -1.17610        0.16170
