32
27518
C         -0.01700        1.57700        0.36510
C         -1.19090        0.97940       -0.43560
C          0.98610        0.53620        0.90730
C         -1.94990       -0.11780        0.31650
C          1.82290       -0.17820       -0.16010
C          0.68890        2.64770       -0.47390
C         -3.08960       -0.68330       -0.53240
C          2.84590       -1.15310        0.43140
C         -3.82790       -1.79500        0.19630
C          3.73150       -1.81300       -0.61440
H         -0.44620        2.08180        1.24160
H         -1.89030        1.78400       -0.69690
H         -0.81890        0.57240       -1.38430
H          0.47900       -0.19980        1.53990
H          1.67820        1.06180        1.57980
H         -2.34650        0.28390        1.25630
H         -1.27700       -0.94380        0.56860
H          1.16170       -0.72600       -0.84130
H          2.36680        0.55710       -0.76310
H          0.00300        3.47480       -0.68860
H          1.03540        2.25480       -1.43500
H          1.54890        3.06280        0.06190
H         -2.69310       -1.07530       -1.47630
H         -3.79730        0.11500       -0.78400
H          2.31930       -1.93220        0.99540
H          3.48490       -0.62030        1.14570
H         -4.64000       -2.18230       -0.42690
H         -3.15450       -2.62550        0.43110
H         -4.26230       -1.42930        1.13220
H          4.43810       -2.49870       -0.13680
H          4.30500       -1.06370       -1.16930
H          3.13090       -2.38430       -1.32910
