19
11813
O         -3.51390        0.23550        0.00000
O          3.51390        0.23560       -0.00030
O         -2.45340       -1.68660       -0.00040
O          2.45350       -1.68660        0.00040
N         -2.45360       -0.43310        0.00000
N          2.45360       -0.43300       -0.00020
C          0.00010       -0.44320        0.00010
C         -1.20800        0.25420        0.00010
C          1.20800        0.25420        0.00000
C          0.00000       -1.94180        0.00010
C         -1.20800        1.64910        0.00010
C          1.20790        1.64910       -0.00010
C         -0.00010        2.34660        0.00010
H          0.24470       -2.33890       -0.99040
H          0.69480       -2.30460        0.76520
H         -0.80960       -2.53450        0.40780
H         -2.12710        2.22960        0.00010
H          2.12700        2.22960       -0.00010
H         -0.00010        3.43270        0.00010
