23
12048
C          0.00010        0.38760        0.31160
C         -1.25630        0.84140       -0.46490
C         -0.00020       -1.11760        0.65610
C          1.25650        0.84120       -0.46490
C         -2.56690        0.55160        0.25260
C         -0.00030       -2.05530       -0.54310
C          2.56710        0.55120        0.25260
H          0.00010        0.92760        1.26910
H         -1.19640        1.92490       -0.62940
H         -1.28020        0.38140       -1.45970
H         -0.86980       -1.35000        1.28190
H          0.86940       -1.35030        1.28180
H          1.28030        0.38120       -1.45970
H          1.19680        1.92480       -0.62940
H         -2.76770       -0.52230        0.30660
H         -3.39940        1.01350       -0.28820
H         -2.55740        0.95710        1.26910
H         -0.88830       -1.91370       -1.16550
H         -0.00040       -3.09540       -0.20070
H          0.88770       -1.91380       -1.16540
H          3.39970        1.01290       -0.28810
H          2.76760       -0.52260        0.30670
H          2.55760        0.95690        1.26900
