19
12067
O          3.51320       -0.23950       -0.00050
O         -3.51300       -0.24020        0.00010
O          2.41570       -2.14070        0.00040
O         -2.41520       -2.14120       -0.00040
N          2.43770       -0.88600       -0.00010
N         -2.43750       -0.88660        0.00000
C         -0.00020        1.91600        0.00010
C          1.20810       -0.17620        0.00020
C         -1.20790       -0.17650       -0.00010
C         -1.20800        1.21840       -0.00010
C          1.20790        1.21870        0.00010
C          0.00020       -0.87370        0.00020
C         -0.00100        3.40750        0.00000
H         -2.13720        1.78390        0.00200
H          2.13690        1.78420        0.00240
H          0.00030       -1.96130        0.00020
H         -0.01000        3.78300        1.02800
H          0.88330        3.80400       -0.51040
H         -0.87680        3.80250       -0.52600
