20
299882
C          1.17500        1.01280        0.70380
C          1.90160       -0.08970       -0.07690
C          0.13810        1.79850       -0.10230
C          0.99730       -1.12190       -0.74380
C         -1.22970        1.22230       -0.36190
C         -0.00160       -1.68790        0.21700
C         -1.77810        0.02170       -0.11930
C         -1.20270       -1.15580        0.48360
H          1.94220        1.72100        1.04460
H          0.72540        0.61100        1.61940
H          2.58750       -0.60070        0.61130
H          2.53130        0.37130       -0.84820
H          0.57560        2.08190       -1.06790
H         -0.03160        2.74070        0.43640
H          1.61030       -1.94080       -1.13950
H          0.50030       -0.68530       -1.61790
H         -1.89880        1.94520       -0.83250
H          0.28910       -2.59230        0.74650
H         -2.82840       -0.10210       -0.38190
H         -1.85060       -1.67520        1.18590
