21
12100
C         -0.85790        0.04450       -0.28900
C         -2.26730       -0.36930       -0.54830
C          0.15090       -0.91680       -0.22400
C          1.46870       -0.52920        0.01930
C         -0.54890        1.39300       -0.11080
C          1.77750        0.81930        0.19740
C         -3.03920       -0.66520        0.73320
C          0.76880        1.78050        0.13230
C          2.54740       -1.55680        0.08990
H         -2.78800        0.41450       -1.11280
H         -2.28290       -1.25610       -1.19440
H         -0.08930       -1.96830       -0.36240
H         -1.32600        2.15140       -0.15730
H          2.80050        1.13420        0.38600
H         -2.57020       -1.47700        1.29940
H         -4.06530       -0.96390        0.49640
H         -3.08240        0.21620        1.38190
H          1.00930        2.83040        0.27110
H          2.16860       -2.49750        0.50380
H          2.94910       -1.74890       -0.90990
H          3.36630       -1.22840        0.73910
