50
3013877
F        -10.02310        0.35650        0.00290
C         -0.01110        0.42390        0.07990
C          1.24940       -0.44260        0.03440
C         -1.30870       -0.39150        0.07840
C          2.54800        0.37080        0.02600
C         -2.60740        0.42080        0.05860
C          3.84620       -0.44170        0.06680
C         -3.86800       -0.44200       -0.02930
C          5.11010        0.41920       -0.00010
C         -5.13120        0.42360       -0.01230
C          6.36990       -0.44810        0.05770
C         -6.39410       -0.43800       -0.06700
C          7.66890        0.35850       -0.03060
C         -7.68530        0.37840       -0.03450
C          8.96010       -0.46350       -0.06450
C         -8.94440       -0.47060       -0.06240
C         10.22060        0.38630       -0.10410
H          0.01260        1.05570        0.97610
H         -0.01330        1.09980       -0.78400
H          1.22210       -1.08000       -0.85770
H          1.25430       -1.11320        0.90240
H         -1.31560       -1.04590        0.95930
H         -1.30070       -1.05330       -0.79720
H          2.55620        1.00340       -0.87080
H          2.54060        1.05410        0.88490
H         -2.58320        1.10920       -0.79520
H         -2.64970        1.04060        0.96280
H          3.84690       -1.14970       -0.77120
H          3.86070       -1.04020        0.98600
H         -3.84110       -1.04040       -0.94790
H         -3.88940       -1.14270        0.81400
H          5.10700        1.00420       -0.92750
H          5.11580        1.13170        0.83320
H         -5.14670        1.03560        0.89760
H         -5.11920        1.11210       -0.86580
H          6.34690       -1.17210       -0.76640
H          6.37310       -1.02840        0.98860
H         -6.39180       -1.13590        0.77960
H         -6.37820       -1.04740       -0.97920
H          7.63350        0.98560       -0.93060
H          7.71020        1.04690        0.82320
H         -7.70480        1.00540        0.86540
H         -7.70820        1.07310       -0.88290
H          8.94580       -1.12230       -0.94080
H          8.99790       -1.11130        0.81930
H         -8.98930       -1.15110        0.79280
H         -9.01730       -1.05110       -0.98650
H         10.28580        1.02930        0.77930
H         11.10920       -0.25210       -0.12780
H         10.23380        1.02310       -0.99430
