26
30140
Cl        -3.66330       -1.64110       -0.37030
Cl        -4.77720        1.02820       -0.11740
C          0.43040        0.47470       -0.10830
C          1.69220       -0.29110        0.30060
C         -0.86740       -0.23280        0.29160
C          2.98770        0.37830       -0.16330
C         -2.09400        0.59940       -0.10390
C          4.20910       -0.46400        0.20830
C         -3.41540       -0.02790        0.34530
C          5.49780        0.17630       -0.28260
H          0.45810        1.47220        0.34740
H          0.43680        0.62300       -1.19540
H          1.70940       -0.40030        1.39210
H          1.64180       -1.30420       -0.11780
H         -0.89410       -1.21610       -0.19040
H         -0.87260       -0.40050        1.37530
H          3.06970        1.37350        0.28970
H          2.95660        0.51920       -1.25060
H         -2.09510        0.74140       -1.19260
H         -2.00250        1.59780        0.34320
H          4.11870       -1.46550       -0.22830
H          4.25860       -0.58730        1.29640
H         -3.44230       -0.14050        1.43300
H          5.49320        0.28200       -1.37210
H          6.35770       -0.44130       -0.00480
H          5.63540        1.16860        0.15870
