10
12232
S         -0.85430       -0.62620        0.57240
S          0.85420       -0.62630       -0.57240
C         -1.85700        0.62620       -0.26330
C          1.85710        0.62620        0.26330
H         -1.35830        1.59890       -0.23960
H         -2.81490        0.71970        0.25580
H         -2.05500        0.33370       -1.29800
H          1.35850        1.59880        0.23960
H          2.81490        0.71950       -0.25590
H          2.05510        0.33360        1.29790
