22
12377
S          0.85900        1.29100        0.56150
S         -0.86120        1.28460       -0.56340
C          3.20590       -0.13180        0.39730
C         -3.20420       -0.13440       -0.39880
C          1.85330        0.03160       -0.28720
C         -1.85340        0.03410        0.28780
C          4.04940       -1.18820       -0.30150
C         -4.04880       -1.18690        0.30440
H          3.75460        0.81780        0.39080
H          3.07070       -0.42630        1.44520
H         -3.75380        0.81470       -0.39950
H         -3.06670       -0.43550       -1.44450
H          1.99920        0.33420       -1.32960
H          1.31360       -0.92130       -0.27230
H         -2.00290        0.34180        1.32830
H         -1.31430       -0.91930        0.28070
H          4.23650       -0.91400       -1.34460
H          5.01620       -1.29390        0.20060
H          3.55030       -2.16240       -0.28590
H         -4.23860       -0.90640        1.34540
H         -5.01430       -1.29630       -0.19930
H         -3.54910       -2.16090        0.29610
