22
31246
O         -0.00040        1.45510       -0.01020
C         -1.28600       -0.58680       -0.01280
C          1.28630       -0.58640       -0.02710
C          0.00000        0.22520       -0.01650
C         -2.53370        0.29050        0.03300
C          2.53400        0.29130        0.00460
C         -3.80350       -0.54420        0.00260
C          3.80320       -0.54470        0.02630
H         -1.29510       -1.20310       -0.91880
H         -1.26520       -1.24900        0.85990
H          1.28710       -1.20520       -0.93120
H          1.27370       -1.24610        0.84770
H         -2.52480        0.90560        0.94080
H         -2.53710        0.98200       -0.81810
H          2.54930        0.95120       -0.87090
H          2.51390        0.93910        0.88920
H         -3.84710       -1.22310        0.86020
H         -4.68450        0.10430        0.03740
H         -3.85800       -1.14240       -0.91260
H          3.87000       -1.17940       -0.86310
H          4.68430        0.10430        0.04750
H          3.83400       -1.18830        0.91130
