19
31242
O         -3.14730        0.00000        0.27840
C          0.96420       -0.00030       -0.29260
C          2.44120        0.00000       -0.49750
C          0.27300       -1.20820       -0.19630
C          0.27370        1.20790       -0.19650
C          3.21060       -0.00010        0.82100
C         -1.10860       -1.20780       -0.00430
C         -1.10780        1.20810       -0.00420
C         -1.79900        0.00030        0.09180
H          2.73700       -0.87400       -1.09130
H          2.73690        0.87430       -1.09100
H          0.79970       -2.15620       -0.26760
H          0.80070        2.15560       -0.26790
H          2.97100        0.88530        1.41950
H          4.28820        0.00000        0.62940
H          2.97120       -0.88590        1.41910
H         -1.63530       -2.15550        0.06930
H         -1.64030        2.15240        0.07030
H         -3.45920       -0.92020        0.32160
