14
31268
N          1.19020        0.02230        0.25490
C         -1.03240        0.74340        0.06990
C         -1.00510       -0.78060        0.06550
C          0.40210        1.16540       -0.19670
C          0.44520       -1.15060       -0.19360
H         -1.71580        1.13970       -0.68790
H         -1.36920        1.10520        1.04850
H         -1.33650       -1.16020        1.03910
H         -1.66820       -1.19590       -0.70010
H          0.55930        1.33660       -1.26820
H          0.66850        2.07960        0.34130
H          0.74300       -2.05190        0.34960
H          0.61250       -1.32110       -1.26380
H          2.12140        0.03910       -0.15710
