24
31286
N         -4.82000       -0.57260       -0.05340
C          1.18630       -0.41550        0.05990
C          0.00270        0.55460        0.01110
C          2.51930        0.33380       -0.00020
C         -1.33270       -0.19720        0.03900
C          3.73700       -0.59260        0.01490
C         -2.54210        0.73890        0.02060
C          5.06360        0.14590       -0.07090
C         -3.81400        0.00480       -0.02100
H          1.14060       -1.00990        0.98030
H          1.12320       -1.11570       -0.78170
H          0.05940        1.16280       -0.89970
H          0.05450        1.24180        0.86420
H          2.58460        1.02630        0.84820
H          2.54880        0.94560       -0.91050
H         -1.37710       -0.83020        0.93490
H         -1.38220       -0.87550       -0.82290
H          3.72420       -1.19310        0.93230
H          3.66940       -1.29450       -0.82490
H         -2.52110        1.38210        0.90800
H         -2.48050        1.39950       -0.85220
H          5.18360        0.83140        0.77380
H          5.12770        0.72670       -0.99650
H          5.89620       -0.56420       -0.05540
