15
31347
S          0.86140        0.00000        0.00000
O          1.55940        0.45720       -1.18360
O          1.55990       -0.45700        1.18340
C         -0.32870       -1.24200       -0.48320
C         -0.32880        1.24180        0.48340
C         -1.66160       -0.75970        0.07790
C         -1.66160        0.75960       -0.07790
H         -0.03320       -2.21440       -0.08440
H         -0.35250       -1.27550       -1.57630
H         -0.03320        2.21440        0.08480
H         -0.35260        1.27500        1.57650
H         -1.73610       -1.02080        1.14050
H         -2.50520       -1.22330       -0.44180
H         -1.73600        1.02080       -1.14040
H         -2.50520        1.22330        0.44190
