15
31374
O          1.26630        1.25520        0.00000
N         -0.66700       -0.03530        0.00000
C          0.71590        0.15090        0.00000
C         -1.27530       -1.35960        0.00000
C         -1.60590        1.08360        0.00000
C          1.56610       -1.09490        0.00000
H         -0.56580       -2.18560        0.00050
H         -1.90460       -1.44930       -0.89110
H         -1.90540       -1.44900        0.89050
H         -2.23140        1.02030       -0.89490
H         -1.07600        2.03940       -0.00010
H         -2.23150        1.02030        0.89490
H          2.62300       -0.80870       -0.00020
H          1.38020       -1.68510        0.90110
H          1.37990       -1.68520       -0.90110
