32
13379
C          1.01450        0.00460       -0.07750
C          2.17340       -0.27100        0.88650
C         -0.33670       -0.16760        0.62140
C          3.56100       -0.04450        0.25820
C         -1.53500        0.13040       -0.28510
C         -2.91600       -0.10620        0.33360
C         -4.06950        0.14870       -0.63690
C          3.73230        1.37500       -0.28460
C          3.79330       -1.05790       -0.86540
C         -5.41720       -0.01160        0.04990
H          1.05640       -0.67580       -0.93450
H          1.07020        1.02690       -0.46530
H          2.10390       -1.30010        1.26090
H          2.07600        0.38530        1.76080
H         -0.38400        0.49170        1.49680
H         -0.41970       -1.19580        0.99480
H          4.31400       -0.21260        1.03810
H         -1.47220        1.17350       -0.62030
H         -1.45000       -0.48860       -1.18750
H         -2.97340       -1.13910        0.69840
H         -3.02430        0.54460        1.21010
H         -3.99370        1.16310       -1.04510
H         -4.00500       -0.54700       -1.48120
H          4.77460        1.54340       -0.57730
H          3.47820        2.11760        0.47880
H          3.11490        1.56190       -1.16870
H          4.82920       -0.99880       -1.21760
H          3.14700       -0.87810       -1.73010
H          3.62310       -2.08100       -0.51410
H         -6.22870        0.17190       -0.66130
H         -5.53640       -1.02450        0.44770
H         -5.52360        0.69770        0.87690
