12
3301
N          1.85830        0.15590       -0.00450
N         -1.85830       -0.15600       -0.00450
C          0.56290       -0.51490        0.00450
C         -0.56290        0.51500        0.00450
H          0.48960       -1.16460       -0.87530
H          0.49710       -1.15090        0.89430
H         -0.49710        1.15090        0.89440
H         -0.48970        1.16460       -0.87540
H          1.94420        0.72590       -0.84520
H          2.59950       -0.54170       -0.05550
H         -1.94410       -0.72590       -0.84510
H         -2.59960        0.54150       -0.05550
