24
15504
C         -0.60050       -0.26750       -0.24000
C         -0.13320        1.10120        0.27380
C          0.38740       -1.36960        0.16540
C          1.28910        1.41870       -0.18210
C          1.80900       -1.04790       -0.29010
C          2.26660        0.31690        0.21500
C         -2.00380       -0.58570        0.27280
C         -3.01460        0.43400       -0.21470
H         -0.63020       -0.23090       -1.33790
H         -0.17620        1.12580        1.37010
H         -0.78420        1.90210       -0.09180
H          0.07820       -2.32800       -0.26830
H          0.37850       -1.49640        1.25560
H          1.61180        2.37130        0.25320
H          1.30380        1.54420       -1.27180
H          1.85350       -1.06550       -1.38600
H          2.49520       -1.82290        0.06960
H          3.26110        0.54400       -0.18530
H          2.36030        0.28880        1.30760
H         -2.02080       -0.62580        1.36840
H         -2.30510       -1.57710       -0.08700
H         -2.89130        1.40290        0.27770
H         -2.95110        0.57860       -1.29780
H         -4.02820        0.08830        0.01550
