29
16665
C         -0.64910       -0.93750        0.37700
C          0.79990       -0.71140        0.85220
C         -1.48240        0.35340        0.23610
C          1.65750        0.07130       -0.14630
C         -0.64530       -1.74480       -0.92570
C         -2.96910        0.14080       -0.06200
C          3.07630        0.27850        0.38620
C         -3.71220        1.46730       -0.13120
C          3.92450        1.08250       -0.58640
H         -1.13270       -1.55740        1.14430
H          1.27030       -1.68330        1.04940
H          0.77840       -0.17710        1.81040
H         -1.05690        0.98120       -0.55630
H         -1.39080        0.92620        1.16800
H          1.71730       -0.46100       -1.10160
H          1.20650        1.04970       -0.34450
H         -0.36100       -1.13140       -1.78670
H         -1.63900       -2.15710       -1.12930
H          0.04400       -2.59370       -0.86330
H         -3.41780       -0.48640        0.71650
H         -3.09660       -0.37980       -1.01680
H          3.55320       -0.69260        0.56320
H          3.04060        0.80290        1.34820
H         -3.30440        2.10490       -0.92200
H         -3.64030        2.00750        0.81820
H         -4.77200        1.29660       -0.34490
H          3.49170        2.07320       -0.75850
H          4.00690        0.57100       -1.55060
H          4.93420        1.21790       -0.18640
