29
28028
C          0.00670       -0.43570        0.01890
C         -1.27830        0.45860       -0.23930
C          1.29540        0.46210        0.24470
C         -0.20500       -1.33310        1.26360
C          0.21470       -1.37850       -1.19240
C         -1.62970        1.39500        0.92770
C         -2.54780       -0.32890       -0.61020
C          2.59990       -0.32560        0.46110
C          1.54420        1.48620       -0.87400
H         -1.07770        1.09280       -1.11140
H          1.14290        1.03420        1.16910
H         -1.13790       -1.90160        1.20500
H         -0.22800       -0.74310        2.18550
H          0.59450       -2.07410        1.36780
H          0.26400       -0.82040       -2.13270
H         -0.59750       -2.10800       -1.28020
H          1.13180       -1.96800       -1.10130
H         -0.80200        2.06350        1.17740
H         -2.48110        2.03280        0.66380
H         -1.90700        0.83600        1.82680
H         -2.41450       -0.90710       -1.52860
H         -2.86090       -1.00740        0.18810
H         -3.38130        0.35860       -0.79650
H          3.41610        0.35910        0.72020
H          2.51700       -1.03820        1.28540
H          2.90830       -0.86530       -0.43920
H          1.65880        1.00360       -1.84910
H          0.73790        2.22130       -0.94110
H          2.46180        2.05330       -0.67890
