20
31272
O         -0.87610        0.50650        0.00550
O         -2.35170       -1.27100       -0.00860
C          1.51640        0.41270        0.01980
C          2.74460       -0.49290        0.00860
C          0.22460       -0.39210        0.00960
C          4.03210        0.31480       -0.02470
C         -2.11640       -0.07030       -0.00380
C         -3.17350        0.99210       -0.00650
H          1.53290        1.06520        0.90190
H          1.53130        1.08330       -0.84870
H          2.71360       -1.15250       -0.86650
H          2.74300       -1.13340        0.89810
H          0.18270       -1.02320       -0.88600
H          0.17280       -1.02930        0.90020
H          4.07960        0.94080       -0.92150
H          4.11030        0.96460        0.85280
H          4.89880       -0.35360       -0.03090
H         -3.07450        1.61080       -0.90180
H         -3.08700        1.60290        0.89570
H         -4.16090        0.52150       -0.01550
