30
68333
O          1.11070       -0.21620       -0.00720
O         -1.10300       -0.22110        0.00500
O         -0.00070        1.80320        0.00030
C          3.47840       -0.57250       -0.01960
C         -3.47990       -0.57240        0.01900
C          4.85460        0.08690       -0.00990
C         -4.85610        0.08710        0.01190
C          2.36030        0.46020       -0.01290
C         -2.36180        0.46030        0.01320
C          5.96790       -0.94770        0.02700
C         -5.96950       -0.94740       -0.02590
C         -0.00080        0.57960       -0.00080
H          3.37270       -1.21910       -0.89970
H          3.36710       -1.23130        0.85090
H         -3.37310       -1.22060        0.89770
H         -3.36920       -1.22950       -0.85270
H          4.94750        0.74340        0.86310
H          4.97350        0.71370       -0.90130
H         -4.94970        0.74520       -0.85990
H         -4.97400        0.71230        0.90450
H          2.43720        1.09070        0.88070
H          2.42920        1.09310       -0.90550
H         -2.43590        1.09140       -0.88010
H         -2.42640        1.09050        0.90790
H          5.89700       -1.56870        0.92570
H          5.92310       -1.60330       -0.84850
H          6.94450       -0.45360        0.03180
H         -5.89940       -1.56680       -0.92580
H         -5.92390       -1.60460        0.84840
H         -6.94600       -0.45330       -0.02890
