18
172092
C          1.03920        0.00000        0.30930
C          1.80360       -1.25630       -0.10690
C          1.80340        1.25640       -0.10680
C         -0.33730        0.00000       -0.30590
C         -1.47250       -0.00010        0.40850
C         -2.83640        0.00000       -0.19830
H          0.95910        0.00000        1.40390
H          1.27160       -2.16120        0.20740
H          2.79640       -1.27600        0.35550
H          1.93810       -1.30520       -1.19340
H          1.93800        1.30530       -1.19340
H          2.79610        1.27630        0.35570
H          1.27120        2.16120        0.20750
H         -0.39350        0.00020       -1.39230
H         -1.42390       -0.00030        1.49420
H         -2.80430        0.00010       -1.29240
H         -3.38850        0.88710        0.12680
H         -3.38860       -0.88710        0.12660
