21
252359
C          0.40960        0.68830       -0.33610
C          0.40810       -0.68930        0.33690
C         -0.97950        1.22520        0.01060
C         -0.98450       -1.22250       -0.00330
C         -1.89750        0.00340       -0.00550
C          1.52510        1.60750        0.13740
C          1.51860       -1.61270       -0.14000
H          0.48480        0.57150       -1.42580
H          0.48790       -0.57230        1.42620
H         -1.31060        1.99250       -0.69660
H         -0.98710        1.67400        1.01160
H         -1.31940       -1.97780        0.71500
H         -0.99470       -1.68630       -0.99740
H         -2.55650        0.00860        0.86950
H         -2.53600        0.00110       -0.89560
H          2.50540        1.21060       -0.14360
H          1.42330        2.59980       -0.31430
H          1.50940        1.72920        1.22570
H          1.41480       -2.60450        0.31240
H          1.49870       -1.73470       -1.22810
H          2.50150       -1.21930        0.13750
