18
639661
C          1.71050        0.53520        0.10710
C          0.69220       -0.60510        0.08930
C          3.10820        0.03740       -0.22680
C         -0.68100       -0.11430        0.44590
C         -1.73280       -0.17320       -0.38350
C         -3.09720        0.32000       -0.03200
H          1.42220        1.30740       -0.61670
H          1.72730        1.01090        1.09530
H          0.98350       -1.37500        0.81390
H          0.69100       -1.08300       -0.89800
H          3.82070        0.86800       -0.20860
H          3.44130       -0.71190        0.49840
H          3.13650       -0.41260       -1.22430
H         -0.80800        0.30510        1.44100
H         -1.60970       -0.59440       -1.37770
H         -3.40250        1.10260       -0.73330
H         -3.81810       -0.50070       -0.09720
H         -3.14140        0.73320        0.98070
