15
5326160
C         -1.07410       -0.18600       -0.60050
C          0.02930       -0.93260        0.08880
C         -1.89700        0.62560        0.38780
C          1.25840       -0.43370        0.28390
C          1.68340        0.92670       -0.16000
H         -1.72540       -0.91910       -1.09220
H         -0.70040        0.45520       -1.40550
H         -0.19580       -1.93000        0.45720
H         -2.72090        1.12650       -0.13070
H         -1.29170        1.39450        0.87890
H         -2.32870       -0.01520        1.16430
H          1.99910       -1.04670        0.78990
H          2.19610        1.42900        0.66740
H          0.86840        1.58340       -0.46990
H          2.39250        0.84070       -0.98930
