32
519390
C          0.15730        0.66620       -0.15920
C         -1.21210        0.40080        0.54500
C          0.83050       -0.64790       -0.65090
C          1.04680        1.43150        0.87080
C         -0.07440        1.56720       -1.39400
C         -2.30970       -0.23240       -0.31830
C          1.07980       -1.70580        0.42990
C          2.43000        1.85490        0.38940
C         -3.61420       -0.35790        0.45710
C          1.66590       -2.97650       -0.16960
H         -1.06120       -0.21010        1.44320
H         -1.59870        1.36220        0.91260
H          1.78110       -0.41520       -1.14700
H          0.20290       -1.09680       -1.43210
H          0.52000        2.33990        1.19290
H          1.16870        0.82350        1.77560
H         -0.68990        1.07270       -2.15220
H         -0.56950        2.50360       -1.11400
H          0.86700        1.82150       -1.89170
H         -2.00030       -1.22700       -0.65580
H         -2.50680        0.37260       -1.20800
H          0.14750       -1.97100        0.93730
H          1.77120       -1.32190        1.18700
H          2.37540        2.55650       -0.44700
H          3.03640        0.99580        0.09070
H          2.96160        2.36190        1.20200
H         -4.38490       -0.81630       -0.17040
H         -3.97710        0.62390        0.77760
H         -3.48310       -0.98380        1.34560
H          0.98360       -3.41500       -0.90490
H          2.62080       -2.77230       -0.66440
H          1.84200       -3.71910        0.61500
