21
525429
S         -1.10080        0.26700       -1.09360
C          0.11720       -0.53750        0.02550
C          0.92610        0.52290        0.80930
C         -0.64910       -1.48210        0.95970
C          1.07650       -1.35780       -0.85120
C          1.72770        1.51620       -0.02660
C         -2.09760        1.07130        0.17690
H          0.29050        1.07500        1.50930
H          1.64190       -0.00650        1.45420
H          0.05600       -2.13020        1.49550
H         -1.20860       -0.95220        1.73640
H         -1.33500       -2.14290        0.41700
H          1.87380       -1.80430       -0.24510
H          0.55300       -2.18440       -1.34770
H          1.55340       -0.76040       -1.63570
H          2.26230        2.20320        0.63860
H          1.08910        2.12480       -0.67220
H          2.48070        1.01870       -0.64380
H         -1.53020        1.78730        0.77260
H         -2.61620        0.35590        0.81730
H         -2.87650        1.64570       -0.33570
