18
5326159
C          0.79510       -0.06780        0.26980
C          1.15540       -1.41520       -0.35520
C          2.03810        0.81150        0.40440
C         -0.24900        0.63070       -0.56400
C         -1.56940        0.46700       -0.39460
C         -2.17020       -0.42630        0.63960
H          0.42900       -0.23680        1.28870
H          0.28140       -2.07160       -0.42560
H          1.90860       -1.93150        0.24970
H          1.56430       -1.29230       -1.36480
H          2.49970        1.01060       -0.56950
H          2.78890        0.32550        1.03700
H          1.78960        1.77520        0.86300
H          0.08930        1.28450       -1.36450
H         -2.25260        1.01070       -1.04110
H         -1.47880       -1.14230        1.08730
H         -2.97310       -1.01320        0.18030
H         -2.61330        0.17640        1.43850
