50
545801
C         -6.17680       -0.07130       -0.04260
C         -4.81250        0.66690        0.01410
C         -3.56890       -0.23050        0.03010
C         -2.28640        0.60720        0.02090
C         -1.04130       -0.28120        0.07390
C          0.23850        0.55580        0.03090
C          1.51910       -0.28450        0.04840
C          2.83420        0.49830       -0.01740
C         -7.34630        0.92420       -0.11460
C         -6.32420       -0.90580        1.24510
C         -6.24560       -1.02170       -1.24940
C          4.07800       -0.39000        0.06620
C          5.35830        0.44650        0.00470
C          6.63840       -0.39300        0.05880
C          7.95020        0.38310       -0.08260
C          9.18530       -0.50400       -0.08640
H         -4.79170        1.32000        0.89690
H         -4.74550        1.33410       -0.85610
H         -3.55890       -0.88850       -0.84490
H         -3.56990       -0.86580        0.92190
H         -2.28540        1.28940        0.87960
H         -2.25970        1.22570       -0.88450
H         -1.05480       -0.88430        0.98960
H         -1.05000       -0.97790       -0.77300
H          0.25190        1.24380        0.88510
H          0.23600        1.17580       -0.87420
H          1.49010       -0.98800       -0.79350
H          1.52030       -0.89550        0.96020
H          2.85830        1.07430       -0.95060
H          2.85450        1.22560        0.80370
H         -7.33890        1.60300        0.74550
H         -8.31270        0.40810       -0.12510
H         -7.28360        1.53520       -1.02180
H         -7.31540       -1.37210        1.29520
H         -6.20970       -0.28180        2.13860
H         -5.59070       -1.71640        1.30080
H         -7.24170       -1.47130       -1.33740
H         -6.04130       -0.48520       -2.18250
H         -5.53180       -1.84780       -1.16880
H          4.06870       -1.11170       -0.75920
H          4.05950       -0.96460        0.99980
H          5.35990        1.03440       -0.92160
H          5.36780        1.16390        0.83450
H          6.59380       -1.14600       -0.73870
H          6.65620       -0.94810        1.00530
H          7.92850        0.96120       -1.01400
H          8.03140        1.10590        0.73770
H          9.25920       -1.07330        0.84550
H          9.15470       -1.21230       -0.92020
H         10.08990        0.10360       -0.18790
