16
4837
N          1.42740        0.00120        0.22880
N         -1.43300       -0.00130       -0.23120
C         -0.72780       -1.20160        0.22590
C          0.73280       -1.20360       -0.22460
C         -0.73010        1.20040        0.22580
C          0.73060        1.20500       -0.22450
H         -0.78810       -1.27580        1.31910
H         -1.23220       -2.08400       -0.18280
H         -1.23600        2.08180       -0.18320
H         -0.79060        1.27460        1.31900
H          1.23820       -2.08280        0.18960
H          0.79360       -1.28200       -1.31740
H          0.79140        1.28350       -1.31730
H          1.23450        2.08490        0.18990
H          2.38060        0.00210       -0.13270
H         -2.38290       -0.00220        0.13890
