8
61107
Cl        -1.20340        0.00050        1.81170
Cl        -1.50050       -1.44450       -0.69930
Cl        -1.49950        1.44440       -0.70000
Cl         1.57160        1.44870        0.56300
Cl         1.57190       -1.44850        0.56360
F          1.03390       -0.00050       -1.47700
C         -0.75170        0.00010        0.07480
C          0.77770       -0.00020       -0.13690
