8
61105
Cl        -1.54780        1.44430       -0.43660
Cl        -1.54820       -1.44410       -0.43640
Cl         1.72520       -1.44350       -0.03850
Cl         1.72550        1.44340       -0.03830
F         -0.52710        0.00010        1.42430
C         -0.61760        0.00000        0.06630
C          0.79000       -0.00020       -0.54080
H          0.75630        0.00000       -1.63480
