36
62570
S         -7.26100        0.48180        0.16110
C          0.67580        0.39290       -0.12400
C         -0.60090       -0.45050       -0.05700
C          1.95940       -0.43700       -0.04130
C         -1.91920        0.33080       -0.08500
C          3.19670        0.46370       -0.02240
C         -3.19490       -0.51820       -0.08580
C          4.51600       -0.31300        0.02860
C         -4.47750        0.31770       -0.01590
C          5.78920        0.53670        0.02570
C         -5.75050       -0.52520        0.07340
C          7.06690       -0.27960        0.14260
H          0.67500        0.97190       -1.05560
H          0.66040        1.11820        0.69910
H         -0.59630       -1.15770       -0.89610
H         -0.57750       -1.05700        0.85720
H          2.00990       -1.12040       -0.89720
H          1.94340       -1.05320        0.86560
H         -1.93970        1.00210        0.78280
H         -1.92740        0.97480       -0.97350
H          3.14550        1.13520        0.84340
H          3.19540        1.09960       -0.91640
H         -3.16610       -1.20120        0.77210
H         -3.21450       -1.14210       -0.98750
H          4.55340       -1.00080       -0.82590
H          4.51480       -0.94050        0.92900
H         -4.41990        0.97840        0.85860
H         -4.52390        0.96410       -0.90160
H          5.74840        1.24910        0.85830
H          5.82590        1.12830       -0.89660
H         -5.82880       -1.18030       -0.80040
H         -5.71710       -1.16190        0.96350
H          7.08010       -0.85250        1.07520
H          7.94110        0.37860        0.13400
H          7.15910       -0.98090       -0.69270
H         -7.11240        1.08640       -1.02680
