12
62695
C         -0.54020       -0.39690       -0.00020
C          0.54010        0.39680       -0.00020
C         -1.94420        0.11030        0.00020
C          1.94420       -0.11020        0.00020
H         -0.41350       -1.47630       -0.00010
H          0.41330        1.47630       -0.00020
H         -2.47140       -0.25360        0.88740
H         -1.99070        1.20390        0.00040
H         -2.47180       -0.25330       -0.88680
H          2.47140        0.25370        0.88740
H          1.99100       -1.20380        0.00030
H          2.47180        0.25360       -0.88680
