11
6358
Br         1.74460       -0.00040       -0.10100
C         -0.14820        0.00010        0.39520
C         -0.79860       -1.26080       -0.14710
C         -0.79790        1.26120       -0.14710
H         -0.16830        0.00010        1.48940
H         -0.31190       -2.15870        0.24940
H         -1.85540       -1.30220        0.13670
H         -0.74160       -1.30800       -1.24040
H         -0.31070        2.15880        0.24940
H         -1.85480        1.30300        0.13660
H         -0.74080        1.30830       -1.24040
