11
6361
Cl         1.62750        0.00010       -0.10850
C         -0.09020        0.00000        0.38310
C         -0.76860       -1.25890       -0.13730
C         -0.76880        1.25870       -0.13730
H         -0.10730        0.00010        1.47770
H         -0.27950       -2.15830        0.25220
H         -1.81740       -1.28930        0.17690
H         -0.74480       -1.30650       -1.23160
H         -0.28000        2.15830        0.25220
H         -1.81760        1.28900        0.17690
H         -0.74500        1.30640       -1.23160
