6
6366
Cl         1.47960        0.77720        0.00000
Cl        -1.48010        0.77660        0.00000
C          0.00000       -0.10880        0.00020
C          0.00040       -1.44500       -0.00010
H         -0.92480       -2.01250       -0.00010
H          0.92600       -2.01200       -0.00010
