8
6368
F         -0.67850       -1.08840       -0.12580
F         -0.67820        1.08860       -0.12580
C         -0.03670        0.00000        0.36450
C          1.39340       -0.00010       -0.11290
H         -0.11420        0.00000        1.45490
H          1.42700       -0.00020       -1.20690
H          1.91960        0.89220        0.23770
H          1.91950       -0.89250        0.23790
