15
6387
S          1.76080        0.00010        0.01690
C         -0.07420        0.00000        0.00080
C         -0.57130        1.26260        0.71060
C         -0.54400       -0.01030       -1.45660
C         -0.57130       -1.25240        0.72830
H         -0.22540        2.17440        0.20990
H         -1.66720        1.29480        0.72080
H         -0.23640        1.30020        1.75390
H         -0.19090       -0.89970       -1.99160
H         -0.19730        0.87470       -2.00310
H         -1.63910       -0.01430       -1.50990
H         -0.23900       -1.27380        1.77290
H         -1.66720       -1.28670        0.73610
H         -0.22180       -2.17070        0.24190
H          1.92620        1.15010       -0.65350
