8
6388
Cl         1.68660       -0.27450        0.00010
F         -0.39530        0.75860       -1.08910
F         -0.39560        0.75870        1.08890
C         -0.05590        0.02470        0.00010
C         -0.83980       -1.26750        0.00000
H         -0.62650       -1.86380        0.89270
H         -1.91320       -1.05070       -0.00020
H         -0.62620       -1.86380       -0.89260
