9
639660
Br        -2.20650       -0.12310       -0.00010
C          2.03090        0.07810       -0.00010
C          0.61360       -0.39060        0.00010
C         -0.43800        0.43550        0.00010
H          2.54850       -0.29960        0.88700
H          2.10670        1.17020       -0.00030
H          2.54820       -0.29990       -0.88730
H          0.45880       -1.46640        0.00020
H         -0.32900        1.51330        0.00000
