8
6429
Cl         1.54680       -1.34310        0.64560
Cl        -1.54710       -1.34370       -0.64440
F          1.26280        1.19100        0.44420
F          1.04360        0.09700       -1.42340
F         -1.04340        0.09870        1.42330
F         -1.26270        1.19060       -0.44540
C          0.75120        0.05460       -0.09880
C         -0.75120        0.05490        0.09880
