8
6430
Cl        -1.61480       -1.38470       -0.00430
F         -1.07560        0.87910       -1.08370
F         -1.07690        0.87000        1.09480
F          1.43250        1.09930        0.04390
F          1.15350       -0.81310        1.06120
F          1.14630       -0.72390       -1.11720
C         -0.72730        0.14530        0.00270
C          0.76240       -0.07200        0.00260
