6
643833
Cl         1.58990        0.72090        0.00000
Cl        -1.59030        0.72050        0.00000
C          0.66540       -0.72070        0.00000
C         -0.66500       -0.72070        0.00000
H          1.27130       -1.61620        0.00010
H         -1.27070       -1.61630        0.00000
