42
64678
N         -8.56140       -0.74410       -0.11500
C          1.24910        0.41290        0.08670
C         -0.07320       -0.35910        0.12790
C          2.52160       -0.43980        0.08680
C         -1.30780        0.54260        0.06920
C          3.80720        0.38300       -0.01780
C         -2.59730       -0.27990        0.12180
C          5.04400       -0.51980       -0.02120
C         -3.83290        0.61650        0.02600
C          6.33140        0.30500       -0.08840
C         -5.12160       -0.20750        0.04540
C          7.60040       -0.54970       -0.07090
C         -6.35510        0.68570       -0.08370
C          8.88280        0.26820       -0.06610
C         -7.58720       -0.11400       -0.10090
H          1.28410        1.09720        0.94400
H          1.25440        1.04400       -0.81130
H         -0.09960       -1.06260       -0.71350
H         -0.10380       -0.96120        1.04430
H          2.54580       -1.04110        1.00400
H          2.47580       -1.14500       -0.75230
H         -1.28660        1.24950        0.90740
H         -1.28370        1.13400       -0.85400
H          3.78630        0.98300       -0.93550
H          3.86150        1.08210        0.82540
H         -2.63040       -0.85460        1.05540
H         -2.60440       -1.00250       -0.70330
H          5.00120       -1.20360       -0.87730
H          5.05270       -1.13610        0.88590
H         -3.83770        1.32770        0.86080
H         -3.78790        1.20390       -0.89920
H          6.32420        0.91820       -0.99800
H          6.35780        0.99930        0.76080
H         -5.17640       -0.78560        0.97670
H         -5.10440       -0.93500       -0.77650
H          7.60350       -1.21240       -0.94440
H          7.59210       -1.19400        0.81640
H         -6.29270        1.27620       -1.00510
H         -6.38980        1.39480        0.75150
H          8.93150        0.91260        0.81730
H          8.94450        0.90120       -0.95690
H          9.75530       -0.39230       -0.05530
