14
6554
Br        -2.10530        0.74090        0.04420
C         -0.38030       -0.09450       -0.37140
C          0.75890        0.71080        0.25540
C         -0.41430       -1.52240        0.15480
C          2.14110        0.16520       -0.08300
H         -0.31020       -0.08910       -1.46380
H          0.64760        0.75120        1.34630
H          0.70370        1.74870       -0.09720
H         -1.28240       -2.06600       -0.23540
H          0.47500       -2.08180       -0.15140
H         -0.47370       -1.54940        1.24870
H          2.91310        0.84610        0.29010
H          2.27070        0.06730       -1.16550
H          2.31360       -0.81100        0.37920
