7
6576
Cl        -0.43910        1.69000       -0.11190
Cl        -1.73590       -0.91180       -0.31240
O          1.81170       -0.15150       -0.30840
C         -0.47450        0.03130        0.49270
C          0.83790       -0.65800        0.23990
H         -0.67070        0.04860        1.56790
H          0.90350       -1.69380        0.61860
