8
6591
Cl        -0.85500       -1.45630        0.97340
Cl        -2.05660        0.72970       -0.53050
Cl         0.85510        1.45600        0.97360
Cl         2.05650       -0.72940       -0.53070
C         -0.66230       -0.38530       -0.44290
C          0.66230        0.38530       -0.44280
H         -0.72520       -1.02340       -1.32980
H          0.72510        1.02370       -1.32950
