7
6593
Cl         1.48670       -1.46260        0.08830
Cl         1.49280        1.45890        0.09130
Cl        -2.08390        0.00010        0.88450
O         -0.78040        0.00240       -1.41990
C          0.60040       -0.00050        0.54860
C         -0.71560        0.00170       -0.19290
H          0.47110       -0.00130        1.63380
