6
6594
Cl        -1.85480        0.97140       -0.00010
F         -0.92940       -1.51560        0.00020
F          1.06010        1.43630        0.00020
F          1.63500       -0.82440       -0.00010
C         -0.59980       -0.20590       -0.00010
C          0.68890        0.13820       -0.00010
