23
6629
O          2.02970       -0.99450       -0.08180
O          1.63210       -1.43590        1.23740
C          1.38700        0.29210       -0.23430
C         -0.09380        0.15160       -0.12520
C          2.03880        1.19000        0.84830
C          1.78570        0.82490       -1.62890
C         -0.85540        1.19050        0.41030
C         -0.71740       -1.01830       -0.55900
C         -2.24030        1.05930        0.51220
C         -2.10250       -1.14930       -0.45720
C         -2.86380       -0.11040        0.07840
H          1.69530        0.94250        1.85950
H          3.12910        1.07020        0.84540
H          1.82480        2.25100        0.67800
H          2.87590        0.88500       -1.72520
H          1.36230        1.81710       -1.81920
H          1.44150        0.14830       -2.42010
H         -0.40790        2.12120        0.74380
H         -0.15070       -1.83660       -0.99480
H         -2.83400        1.86940        0.92570
H         -2.58880       -2.05850       -0.79840
H         -3.94240       -0.21190        0.15610
H          2.51140       -1.34780        1.64300
