15
6658
O         -1.14440       -0.68780        0.00010
O         -0.62240        1.55400        0.00040
C          1.11280       -0.11010        0.00000
C          1.40580       -1.57930        0.00020
C         -0.29530        0.37570        0.00050
C          2.08320        0.81550       -0.00070
C         -2.53980       -0.36810       -0.00060
H          0.98250       -2.05590        0.89040
H          0.98210       -2.05630       -0.88960
H          2.48250       -1.78140        0.00000
H          3.12920        0.52490       -0.00110
H          1.87680        1.88060       -0.00090
H         -3.10310       -1.30510       -0.00090
H         -2.79810        0.19740       -0.90100
H         -2.79900        0.19750        0.89950
