11
67899
F         -0.53300       -0.75610       -1.10380
F         -1.48560        0.84910        0.02350
F         -0.51210       -0.79120        1.08030
C          0.86890        0.79730        0.00020
C         -0.42430        0.01310       -0.00010
C          2.08610       -0.11210       -0.00020
H          0.90050        1.44800       -0.88040
H          0.90120        1.44480        0.88330
H          2.09700       -0.75380       -0.88700
H          3.00410        0.48380       -0.00140
H          2.09900       -0.75260        0.88750
