34
69821
C          0.65650       -0.55360        0.09860
C          1.88770        0.35350        0.14540
C         -0.66890        0.21180        0.16460
C          3.17760       -0.45450       -0.01460
C         -1.93760       -0.63780        0.03630
C          4.40800        0.45420       -0.00510
C         -3.22750        0.19040        0.04840
C          5.69810       -0.35590       -0.13120
C         -4.48490       -0.67180       -0.08490
C          6.92530        0.54050       -0.08880
C         -5.71440        0.13370       -0.08460
C         -6.72000        0.78960       -0.08410
H          0.69820       -1.27070        0.92750
H          0.67640       -1.14050       -0.82820
H          1.90510        0.89980        1.09600
H          1.82220        1.09950       -0.65580
H         -0.70860        0.76570        1.11100
H         -0.67520        0.96500       -0.63380
H          3.14670       -1.01740       -0.95540
H          3.25290       -1.18690        0.79830
H         -1.96450       -1.36540        0.85660
H         -1.88910       -1.21300       -0.89640
H          4.34200        1.17310       -0.83080
H          4.42840        1.03310        0.92640
H         -3.27670        0.76950        0.97960
H         -3.19570        0.92050       -0.77060
H          5.69400       -0.91810       -1.07230
H          5.76040       -1.08690        0.68330
H         -4.52320       -1.39310        0.74000
H         -4.43340       -1.25320       -1.01310
H          6.91030        1.26510       -0.90930
H          7.83610       -0.05920       -0.18180
H          6.97640        1.09150        0.85570
H         -7.61180        1.37150       -0.08360
