18
7003
Cl        -1.97670       -2.37760        0.00010
C         -0.00360       -0.44060        0.00010
C          0.39900        0.91620        0.00020
C         -1.37340       -0.75060        0.00000
C         -0.58020        1.92300        0.00010
C          0.97550       -1.44740        0.00010
C          1.76870        1.22620        0.00000
C         -2.33250        0.26250       -0.00020
C         -1.93670        1.59680       -0.00020
C          2.33200       -1.12130       -0.00010
C          2.72780        0.21290       -0.00010
H         -0.29380        2.97260        0.00010
H          0.71970       -2.50350        0.00000
H          2.10110        2.26230        0.00000
H         -3.39470        0.02980       -0.00030
H         -2.68370        2.38520       -0.00030
H          3.07960       -1.90920       -0.00030
H          3.78400        0.46610       -0.00030
