19
7005
O         -1.68080       -2.19340       -0.00010
C          0.01290       -0.47110        0.00020
C          0.32320        0.90980        0.00020
C         -1.33290       -0.87250        0.00010
C         -0.72140        1.84840        0.00010
C          1.05760       -1.40970        0.00010
C          1.66900        1.31130        0.00000
C         -2.35800        0.07370       -0.00010
C         -2.05290        1.43160       -0.00020
C          2.38910       -0.99300       -0.00010
C          2.69420        0.36490       -0.00020
H         -0.50630        2.91490        0.00000
H          0.87980       -2.48110       -0.01610
H          1.93090        2.36730       -0.00030
H         -3.39770       -0.24270       -0.00030
H         -2.85140        2.16780       -0.00030
H          3.18810       -1.72870       -0.00390
H          3.73090        0.68870       -0.00130
H         -0.99020       -2.72530        0.42460
