21
7055
C          0.24310       -0.62290        0.00010
C          0.46710        0.77460        0.00020
C         -2.15710       -0.22650       -0.00030
C         -1.07510       -1.10720       -0.00010
C         -0.63390        1.64640        0.00010
C         -1.93690        1.14770       -0.00030
C          1.34410       -1.49480        0.00000
C          1.78530        1.25890        0.00010
C         -3.55100       -0.75820        0.00030
C          2.64710       -0.99620       -0.00010
C          2.86730        0.37800       -0.00010
H         -1.25820       -2.18050        0.00190
H         -0.48530        2.72440        0.00070
H         -2.77150        1.84390        0.00160
H          1.19580       -2.57270        0.00000
H          1.98110        2.32920        0.00000
H         -3.87920       -0.95010        1.02670
H         -4.24690       -0.05010       -0.46240
H         -3.61610       -1.69050       -0.57090
H          3.48990       -1.68130       -0.00020
H          3.88190        0.76550       -0.00020
