19
7249
O          2.91230       -0.41480       -0.00070
C         -0.72770       -0.78320       -0.00020
C         -1.12380        0.55420       -0.00020
C          0.62860       -1.10900        0.00010
C         -0.16350        1.56580        0.00030
C         -1.73790       -1.88310        0.00050
C         -2.56970        0.92740       -0.00060
C          1.58890       -0.09740        0.00030
C          1.19290        1.24010        0.00060
H          0.94860       -2.14820       -0.00010
H         -0.45460        2.61300        0.00030
H         -1.26300       -2.87040       -0.00100
H         -2.36650       -1.82900        0.89520
H         -2.36920       -1.82780       -0.89230
H         -3.06900        0.53820        0.89280
H         -2.70830        2.01420        0.00010
H         -3.06810        0.53920       -0.89470
H          1.93120        2.03750        0.00070
H          3.43340        0.40650       -0.00060
