30
7486
C          2.85750       -0.00800        0.40700
C         -2.85730        0.00770       -0.40690
C          1.38090       -0.00380        0.19650
C         -1.38100        0.00430       -0.19670
C          0.86050        0.02160       -1.09750
C         -0.52040        0.02570       -1.29410
C          0.52020       -0.02510        1.29400
C         -0.86080       -0.02110        1.09740
C          3.53390        1.26320       -0.14010
C          3.53380       -1.25730       -0.18880
C         -3.53430        1.25660        0.18900
C         -3.53320       -1.26390        0.14040
H          3.06170       -0.02890        1.48630
H         -3.06190        0.02840       -1.48610
H          1.51230        0.03840       -1.96660
H         -0.90890        0.04540       -2.30890
H          0.90880       -0.04500        2.30880
H         -1.51270       -0.03810        1.96640
H          3.45150        1.33440       -1.23010
H          4.59930        1.27090        0.11470
H          3.07870        2.16210        0.29030
H          3.07840       -2.17200        0.20670
H          4.59910       -1.27490        0.06540
H          3.45120       -1.28630       -1.28060
H         -3.45170        1.28580        1.28080
H         -4.59970        1.27370       -0.06520
H         -3.07940        2.17160       -0.20650
H         -3.07750       -2.16260       -0.29010
H         -4.59860       -1.27210       -0.11450
H         -3.45070       -1.33500        1.23020
