23
7497
O          3.20460       -0.01410        0.09900
N         -0.46980       -0.00060       -0.19170
C          0.86010        0.44250        0.22560
C         -1.49280        0.92370        0.29590
C         -0.73240       -1.35530        0.29240
C          1.93120       -0.49120       -0.31540
C         -1.21350        2.32590       -0.21010
C         -2.08740       -1.83090       -0.19570
H          0.94430        0.51290        1.31850
H          1.10650        1.43470       -0.16750
H         -2.47960        0.65730       -0.09610
H         -1.55800        0.92920        1.39110
H         -0.02250       -2.07450       -0.12400
H         -0.67920       -1.42430        1.38600
H          1.91280       -0.52840       -1.40980
H          1.86180       -1.50570        0.08160
H         -0.40410        2.81890        0.33760
H         -0.98450        2.33970       -1.28150
H         -2.10370        2.94890       -0.06410
H         -2.91650       -1.37560        0.35460
H         -2.22530       -1.64700       -1.26700
H         -2.17310       -2.91270       -0.04010
H          3.87140       -0.61540       -0.27450
