34
75189
O          3.46940       -1.32640        0.03520
C         -1.56890       -0.27560        0.04180
C         -0.33980        0.63530        0.06430
C         -2.86470        0.53870        0.04440
C          0.95620       -0.17950        0.02850
C         -4.09210       -0.37350       -0.01160
C          2.20130        0.70190        0.02120
C         -5.41620        0.39290       -0.03530
C          3.49210       -0.09580        0.00330
C         -6.64010       -0.50950       -0.06580
C          4.78810        0.69330       -0.07310
C          6.01470       -0.20170       -0.05300
H         -1.55010       -0.94150        0.91310
H         -1.53750       -0.91090       -0.85180
H         -0.35770        1.25800        0.96680
H         -0.36810        1.31290       -0.79760
H         -2.90940        1.15990        0.94700
H         -2.87560        1.21730       -0.81700
H          0.95950       -0.82140       -0.86160
H          0.98590       -0.85010        0.89670
H         -4.03210       -1.00870       -0.90420
H         -4.08210       -1.04530        0.85580
H          2.21380        1.33750        0.91350
H          2.19250        1.34680       -0.86450
H         -5.43900        1.05080       -0.91220
H         -5.47680        1.03940        0.84830
H         -7.55510        0.09070       -0.08220
H         -6.67100       -1.15490        0.81770
H         -6.63320       -1.14590       -0.95630
H          4.77610        1.28100       -0.99670
H          4.82060        1.37900        0.77990
H          6.05070       -0.79920        0.86400
H          6.92670        0.40080       -0.10460
H          6.01230       -0.89180       -0.90320
