19
7529
C         -1.57420       -0.42320       -0.02680
C          0.82550       -0.18320        0.11590
C         -0.30590       -0.99710        0.06030
C         -1.71110        0.96450       -0.05830
C          0.68870        1.20450        0.08440
C         -0.57960        1.77840       -0.00280
C         -2.78440       -1.29270       -0.08670
C          2.14860       -0.78090        0.20710
C          3.29240       -0.27030       -0.29310
H         -0.20480       -2.08030        0.08140
H         -2.69360        1.42390       -0.12730
H          1.54820        1.86770        0.14020
H         -0.68680        2.85900       -0.02460
H         -3.65990       -0.78380        0.33080
H         -3.00030       -1.56500       -1.12460
H         -2.63970       -2.20950        0.49510
H          2.20270       -1.74580        0.70690
H          4.22380       -0.81460       -0.17460
H          3.32900        0.67030       -0.83080
