30
7602
C         -0.20980       -1.37910        0.35400
C          1.29920        0.50790        0.35370
C         -1.08930        0.87120        0.35370
C          1.08930       -0.87110        0.35390
C         -1.29930       -0.50780        0.35390
C          0.20990        1.37900        0.35360
C         -0.43430       -2.85370        0.35310
C          2.68840        1.05080        0.35330
C         -2.25430        1.80270        0.35320
C         -0.52050       -3.42420       -1.06100
C          3.22620        1.26120       -1.06070
C         -2.70540        2.16320       -1.06080
H          1.93870       -1.55040        0.35010
H         -2.31220       -0.90370        0.35010
H          0.37340        2.45420        0.34970
H          0.37330       -3.35640        0.90000
H         -1.35530       -3.09330        0.89920
H          2.71970        2.00170        0.89990
H          3.35620        0.37310        0.89970
H         -3.09340        1.35430        0.89990
H         -2.00140        2.71980        0.89970
H         -1.34750       -2.97350       -1.62010
H         -0.68510       -4.50560       -1.02240
H          0.40360       -3.24010       -1.61930
H          3.24960        0.31960       -1.61960
H          4.24500        1.65940       -1.02170
H          2.60480        1.96930       -1.61940
H         -1.90160        2.65440       -1.61960
H         -3.55970        2.84630       -1.02170
H         -3.00780        1.27100       -1.61950
