24
7734
C          1.39490        0.00030       -0.28240
C         -1.39480        0.00020       -0.28190
C          2.88640        0.00000       -0.28250
C         -2.88610        0.00020       -0.28260
C          0.69720        1.20830       -0.28190
C         -0.69760        1.20820       -0.28160
C          0.69760       -1.20780       -0.28270
C         -0.69730       -1.20780       -0.28250
C          3.46720       -0.00060        1.12920
C         -3.46750       -0.00080        1.12880
H          3.26060       -0.87400       -0.83030
H          3.26080        0.87430       -0.82960
H         -3.26030        0.87460       -0.82970
H         -3.26030       -0.87360       -0.83080
H          1.22890        2.15620       -0.27940
H         -1.22930        2.15600       -0.27900
H          1.22940       -2.15560       -0.28090
H         -1.22910       -2.15570       -0.28070
H          3.14790        0.88490        1.68920
H          4.56100       -0.00070        1.08760
H          3.14760       -0.88640        1.68850
H         -3.14820       -0.88680        1.68800
H         -4.56130       -0.00090        1.08670
H         -3.14840        0.88440        1.68920
