32
77653
C          0.21380        0.89670       -0.01870
C         -1.28670        0.72690       -0.40550
C          1.04720       -0.40530       -0.20300
C         -2.06970       -0.40990        0.29230
C          0.80160        2.01810       -0.90560
C          0.36200        1.34680        1.44740
C          2.54220       -0.29410        0.11480
C         -1.36460       -1.75190        0.06050
C         -3.50700       -0.51840       -0.22730
C          3.26120       -1.60880       -0.15480
H         -1.81470        1.67140       -0.21580
H         -1.34550        0.56530       -1.49130
H          0.75520       -1.15680        0.51580
H          0.93420       -0.78040       -1.22620
H         -2.11540       -0.21190        1.36960
H          0.18250        2.92150       -0.85350
H          1.81060        2.31040       -0.59800
H          0.84450        1.70550       -1.95490
H         -0.29670        2.19770        1.65770
H          1.37970        1.67180        1.68690
H          0.09140        0.54460        2.14240
H          2.70360       -0.02310        1.16300
H          3.01310        0.47760       -0.50170
H         -2.12080       -2.55040        0.03110
H         -0.86070       -1.84010       -0.90320
H         -0.76380       -2.05410        0.92070
H         -3.52720       -0.76530       -1.29430
H         -4.06470       -1.28980        0.31430
H         -4.03600        0.43070       -0.09060
H          4.32750       -1.51030        0.07180
H          3.16390       -1.90190       -1.20510
H          2.85610       -2.41410        0.46640
