18
7766
O         -1.10220       -0.43790        0.00060
O          1.10230       -0.43780        0.00060
O          0.00000        1.58650       -0.00010
C         -2.36110        0.24360       -0.00040
C          2.36100        0.24360       -0.00040
C         -3.47600       -0.78040       -0.00040
C          3.47600       -0.78040       -0.00040
C          0.00000        0.36290        0.00060
H         -2.43640        0.87280        0.89340
H         -2.43550        0.87180       -0.89510
H          2.43540        0.87180       -0.89510
H          2.43630        0.87290        0.89340
H         -4.45490       -0.29280       -0.00120
H         -3.40350       -1.42920       -0.87950
H         -3.40430       -1.42820        0.87950
H          4.45490       -0.29280       -0.00110
H          3.40430       -1.42820        0.87960
H          3.40350       -1.42920       -0.87940
