12
7848
S          2.12640        0.17260       -0.00100
C         -0.60260        0.50700        0.00120
C          0.47200       -0.57450        0.00100
C         -1.99580       -0.10510       -0.00120
H         -0.50060        1.14680        0.88610
H         -0.49990        1.14890       -0.88220
H          0.38040       -1.20880        0.88840
H          0.37850       -1.21280       -0.88350
H         -2.15200       -0.72820        0.88520
H         -2.75570        0.68270       -0.00080
H         -2.15020       -0.72550       -0.88980
H          2.01210        0.80070       -1.18040
