9
7854
N          1.75630        0.27430        0.00010
C         -0.70720       -0.64040        0.00010
C         -1.71720        0.49440        0.00000
C          0.66810       -0.12830       -0.00030
H         -0.86800       -1.27090       -0.88120
H         -0.86760       -1.27040        0.88180
H         -1.59950        1.12870       -0.88540
H         -2.73680        0.09620        0.00020
H         -1.59930        1.12920        0.88510
