16
7895
O          1.21980       -1.27770        0.00110
C         -1.44020       -0.41300       -0.00100
C         -0.30110        0.60210       -0.02230
C         -2.79680        0.27210        0.01240
C          1.06680       -0.05720       -0.00260
C          2.25150        0.87370        0.01240
H         -0.36580        1.21850       -0.92570
H         -0.37000        1.25750        0.85320
H         -1.37320       -1.06830       -0.87760
H         -1.35220       -1.05620        0.88270
H         -2.92940        0.89690       -0.87670
H         -2.90770        0.90600        0.89800
H         -3.59790       -0.47350        0.02610
H          2.21690        1.49620        0.90990
H          2.23610        1.50020       -0.88280
H          3.17770        0.29230        0.02090
