17
7902
O          2.64020        0.22660        0.17310
N         -1.00650        0.01070       -0.31800
C          0.27010        0.54840        0.15130
C          1.42160       -0.34150       -0.28860
C         -2.10650        0.89200        0.07170
C         -1.21890       -1.33630        0.21050
H          0.28780        0.66410        1.24360
H          0.43160        1.55270       -0.26170
H          1.46760       -0.42080       -1.38000
H          1.37180       -1.34460        0.14230
H         -1.96340        1.89480       -0.34630
H         -2.19960        0.98180        1.16010
H         -3.05760        0.52140       -0.32670
H         -2.23650       -1.67790       -0.01590
H         -1.08770       -1.38660        1.29760
H         -0.56420       -2.07110       -0.26770
H          3.35960       -0.35170       -0.13270
