19
7909
O         -1.46840       -0.94220       -0.84130
C          1.26330       -0.10900       -0.24570
C          0.03420        0.79750       -0.08210
C          1.33300       -1.16230        0.86310
C          2.54060        0.73340       -0.23760
C         -1.29070        0.05300       -0.14080
C         -2.41210        0.62960        0.68440
H          1.19990       -0.63040       -1.20900
H          0.01100        1.56040       -0.86880
H          0.09320        1.31860        0.88130
H          2.23050       -1.78060        0.75220
H          1.36730       -0.69440        1.85300
H          0.46980       -1.83410        0.83630
H          3.42360        0.10250       -0.38410
H          2.65970        1.26850        0.71070
H          2.52200        1.47350       -1.04460
H         -2.61250        1.65480        0.36350
H         -3.31730        0.03190        0.54570
H         -2.13640        0.61060        1.74160
