17
7915
O         -0.01540       -0.69340        0.14090
O          1.41760        1.01600        0.74210
C         -1.17420        0.12760        0.25010
C         -1.18690        1.13050       -0.89340
C         -2.41430       -0.75340        0.24500
C          1.18150       -0.03450        0.16090
C          2.19170       -0.79280       -0.64570
H         -1.14320        0.65990        1.20900
H         -2.12280        1.69890       -0.90260
H         -0.36990        1.85470       -0.82440
H         -1.08150        0.62360       -1.85930
H         -3.32720       -0.15920        0.34860
H         -2.37190       -1.47590        1.06720
H         -2.47630       -1.33500       -0.68140
H          1.85630       -0.86730       -1.68320
H          2.33880       -1.78670       -0.21580
H          3.14630       -0.25930       -0.62570
