13
7918
O          0.00000        0.67870       -0.00040
O          1.30550       -1.24450       -0.00130
O         -1.30550       -1.24450        0.00150
C          1.16870       -0.02870       -0.00150
C         -1.16870       -0.02870        0.00100
C          2.31950        0.93390        0.00170
C         -2.31960        0.93380       -0.00110
H          3.25990        0.37510       -0.00780
H          2.28800        1.54670        0.90610
H          2.28030        1.56230       -0.89170
H         -2.28150        1.55980        0.89390
H         -3.25990        0.37500        0.00550
H         -2.28700        1.54900       -0.90390
