9
7923
O          0.00000        0.95550       -0.00030
O          2.26710        0.55670        0.00020
O         -2.26720        0.55660       -0.00010
C          0.66370       -1.21080       -0.00030
C         -0.66350       -1.21070        0.00020
C          1.11090        0.17640       -0.00010
C         -1.11090        0.17630        0.00030
H          1.31620       -2.06710       -0.00060
H         -1.31590       -2.06710        0.00020
