51
79388
N         10.49170        0.90990        0.00030
C         -0.60050        0.24080       -0.05660
C         -1.91060       -0.55500       -0.04050
C          0.68780       -0.58920       -0.05050
C         -3.15910        0.32910        0.01270
C          1.95770        0.26380       -0.00080
C         -4.46780       -0.46940        0.03080
C          3.24500       -0.56690        0.01250
C         -5.71830        0.41380        0.00910
C          4.51620        0.28490       -0.01370
C         -7.02670       -0.38500        0.03760
C          5.77130       -0.59160        0.01240
C         -8.27640        0.49970        0.03960
C          7.04400        0.26230        0.01850
C         -9.58240       -0.29840       -0.00290
C          8.32290       -0.57660        0.01550
C        -10.82860        0.57300       -0.03120
C          9.53400        0.25490        0.00720
H         -0.59540        0.89200       -0.93990
H         -0.58880        0.90590        0.81650
H         -1.90930       -1.22660        0.82690
H         -1.95250       -1.19100       -0.93310
H          0.70870       -1.22290       -0.94550
H          0.67400       -1.26320        0.81470
H         -3.11520        0.96640        0.90440
H         -3.15910        0.99910       -0.85590
H          1.93270        0.90120        0.89160
H          1.97140        0.93440       -0.86890
H         -4.49080       -1.14140       -0.83590
H         -4.48790       -1.10470        0.92480
H          3.24600       -1.23930       -0.85450
H          3.25020       -1.20290        0.90640
H         -5.70030        1.04250       -0.88960
H         -5.69350        1.09190        0.87100
H          4.52060        0.91030       -0.91450
H          4.51970        0.96050        0.85020
H         -7.03980       -1.02680        0.92700
H         -7.05680       -1.05050       -0.83410
H          5.75800       -1.23170        0.90270
H          5.77690       -1.25240       -0.86270
H         -8.26860        1.13440        0.93420
H         -8.24120        1.17250       -0.82620
H          7.03850        0.91660        0.90000
H          7.04110        0.92310       -0.85830
H         -9.58430       -0.94370       -0.88950
H         -9.63150       -0.95910        0.87080
H          8.32890       -1.23210       -0.86320
H          8.33590       -1.22740        0.89760
H        -10.88080        1.20740        0.85930
H        -11.72810       -0.04970       -0.06000
H        -10.83240        1.21960       -0.91430
