13
7969
S         -2.72340        0.00000        0.00030
C         -0.94100       -0.00010       -0.00020
C         -0.24370        1.20790       -0.00020
C         -0.24350       -1.20800       -0.00020
C          1.15120        1.20800        0.00000
C          1.15140       -1.20790        0.00000
C          1.84880        0.00010        0.00020
H         -0.76570        2.16150       -0.00020
H         -0.76940       -2.15960       -0.00020
H          1.69450        2.14850        0.00020
H          1.69470       -2.14840        0.00010
H          2.93490        0.00020        0.00040
H         -2.89740        1.33000       -0.00560
