16
8007
N         -2.46410       -0.33820       -0.00330
C         -0.01310       -0.35230       -0.00480
C          1.24580        0.51570       -0.01140
C         -1.27620        0.50710        0.01140
C          2.50760       -0.33230        0.00820
H         -0.01430       -0.99990       -0.89080
H          0.00020       -1.00890        0.87440
H          1.24610        1.17820        0.86200
H          1.25350        1.15360       -0.90290
H         -1.29220        1.14080        0.90490
H         -1.29580        1.16450       -0.86440
H          3.39500        0.30840        0.00190
H          2.54640       -0.95740        0.90590
H          2.55440       -0.98610       -0.86850
H         -3.29610        0.24700        0.06020
H         -2.47110       -0.93530        0.82270
