12
8008
N          2.38760       -0.27100       -0.00660
C         -1.08850       -0.50690        0.01220
C         -0.07900        0.63920        0.00720
C         -2.51860        0.00900       -0.01210
C          1.29860        0.12960       -0.00070
H         -0.94440       -1.13070        0.90300
H         -0.92600       -1.15540       -0.85760
H         -0.23050        1.27240        0.88900
H         -0.23800        1.27140       -0.87410
H         -2.72540        0.63280        0.86330
H         -2.70560        0.60480       -0.91120
H         -3.22360       -0.82820       -0.00690
