15
8061
N          2.93840       -0.48920        0.00710
C         -0.53830       -0.25000       -0.03010
C         -1.89010        0.46300        0.00380
C          0.61860        0.74850        0.00110
C         -3.04280       -0.52830        0.01310
C          1.91410        0.05610        0.00490
H         -0.47030       -0.87070       -0.93270
H         -0.46150       -0.93160        0.82700
H         -1.98600        1.12020       -0.86810
H         -1.95550        1.09590        0.89640
H          0.56030        1.41260       -0.86900
H          0.54180        1.37980        0.89400
H         -2.99450       -1.17830        0.89260
H         -3.99940        0.00300        0.03570
H         -3.02530       -1.15860       -0.88170
