16
8063
O          2.31820        0.91190       -0.00860
C         -0.40550        0.16530        0.03360
C         -1.79290       -0.47320       -0.00780
C          0.69310       -0.89200       -0.00390
C         -2.89080        0.57870       -0.01000
C          2.07790       -0.29070       -0.00330
H         -0.30320        0.77390        0.94080
H         -0.28890        0.84790       -0.81760
H         -1.89090       -1.09430       -0.90580
H         -1.92550       -1.13180        0.85840
H          0.60360       -1.50760       -0.90540
H          0.61850       -1.55030        0.86840
H         -3.87460        0.09980       -0.03840
H         -2.80610        1.23260       -0.88390
H         -2.84080        1.19950        0.89020
H          2.90260       -1.02430       -0.00450
