16
8064
O         -3.04550        0.24570        0.00380
O          3.04540       -0.24570        0.00910
C         -0.65530        0.38950       -0.00890
C          0.65540       -0.38940       -0.01920
C         -1.86100       -0.53920        0.01010
C          1.86110        0.53910        0.00510
H         -0.69660        1.05310        0.86400
H         -0.71350        1.04540       -0.88660
H          0.70850       -1.03340       -0.90580
H          0.69850       -1.06480        0.84450
H         -1.86870       -1.18730       -0.87210
H         -1.86050       -1.16220        0.91020
H          1.86130        1.17620        0.89520
H          1.88020        1.18110       -0.88080
H         -3.79670       -0.37170        0.01610
H          3.03540       -0.78880        0.81560
