16
8077
S          0.57250        0.12010       -0.89050
S         -0.97230        1.26280       -0.15760
C          1.77440        0.21810        0.45780
C         -1.96300        0.02600        0.71500
C          3.02210       -0.57490        0.11810
C         -2.43360       -1.05220       -0.24280
H          2.04560        1.26480        0.62930
H          1.32950       -0.18280        1.37420
H         -1.38890       -0.40440        1.54160
H         -2.82960        0.53530        1.14870
H          2.79500       -1.63520       -0.03710
H          3.51220       -0.18810       -0.78180
H          3.74170       -0.50820        0.94080
H         -2.95310       -0.63170       -1.11070
H         -1.62080       -1.69450       -0.59340
H         -3.14490       -1.70720        0.27290
