24
8125
C          0.61220        0.52090       -0.03910
C          1.85900       -0.33530        0.19320
C         -0.69260       -0.18810        0.33660
C          3.12300        0.39330       -0.26500
C         -1.94310        0.64170        0.03520
C          4.36280       -0.46560       -0.07260
C         -3.19270       -0.12500        0.35670
C         -4.12860       -0.44200       -0.54490
H          0.69570        1.45020        0.53790
H          0.56680        0.80840       -1.09700
H          1.93900       -0.58650        1.25760
H          1.76080       -1.27950       -0.35580
H         -0.66730       -0.44250        1.40400
H         -0.74820       -1.13820       -0.21060
H          3.23920        1.32650        0.29830
H          3.03550        0.66220       -1.32420
H         -1.92950        1.56030        0.63340
H         -1.93670        0.94700       -1.01820
H          4.49800       -0.72820        0.98140
H          4.29210       -1.39190       -0.65150
H          5.25420        0.07560       -0.40510
H         -3.34170       -0.42670        1.39030
H         -5.01330       -0.99400       -0.24720
H         -4.03080       -0.16040       -1.58750
