34
8191
S         -0.85850       -1.93580        0.56240
S          0.86120       -1.92970       -0.56310
C         -4.05400        0.54760       -0.32060
C          4.05410        0.54580        0.32180
C         -3.20810       -0.50880        0.39520
C          3.20680       -0.50710       -0.39750
C         -5.39960        0.74900        0.37610
C          5.39780        0.75150       -0.37720
C         -1.85320       -0.67620       -0.28690
C          1.85380       -0.67890        0.28720
C         -6.22820        1.82160       -0.31250
C          6.22780        1.82090        0.31500
H         -3.50850        1.49900       -0.34450
H         -4.21980        0.24400       -1.36150
H          3.50840        1.49680        0.35220
H          4.22270        0.23670        1.36060
H         -3.75060       -1.46260        0.39800
H         -3.06640       -0.20920        1.44150
H          3.75020       -1.46050       -0.40680
H          3.06260       -0.20180       -1.44180
H         -5.96060       -0.19270        0.38140
H         -5.23890        1.03700        1.42160
H          5.95920       -0.19000       -0.38880
H          5.23430        1.04490       -1.42070
H         -1.99840       -0.98040       -1.32900
H         -1.31230        0.27610       -0.27310
H          2.00300       -0.98730        1.32760
H          1.31380        0.27390        0.28080
H         -5.70850        2.78500       -0.30410
H         -6.43360        1.55080       -1.35310
H         -7.18640        1.94830        0.20100
H          5.70760        2.78400        0.31290
H          6.43600        1.54470        1.35360
H          7.18470        1.95060       -0.20030
