39
8193
O         -7.52850        0.38350       -0.03910
C         -0.03260        0.42870        0.00540
C          1.26480       -0.38690        0.01720
C         -1.29360       -0.43820        0.03540
C          2.56520        0.42270        0.07810
C         -2.59030        0.37750        0.01090
C          3.82520       -0.44510        0.02710
C         -3.85210       -0.48910        0.01620
C          5.12270        0.36940       -0.00090
C         -5.11670        0.37480       -0.03730
C          6.38300       -0.49320       -0.07880
C         -6.38880       -0.46360       -0.00680
C          7.64180        0.35960       -0.02750
H         -0.04700        1.06380       -0.88870
H         -0.03930        1.10130        0.87180
H          1.28470       -1.01980       -0.87920
H          1.24320       -1.06990        0.87600
H         -1.28030       -1.06480        0.93570
H         -1.28140       -1.11900       -0.82460
H          2.57380        1.02290        0.99590
H          2.58040        1.12830       -0.76160
H         -2.60780        1.04900        0.87820
H         -2.59390        1.01410       -0.88270
H          3.78690       -1.08230       -0.86510
H          3.83640       -1.11600        0.89490
H         -3.86630       -1.10910        0.92050
H         -3.83560       -1.16900       -0.84400
H          5.10070        1.05240       -0.85930
H          5.16630        0.99510        0.89930
H         -5.12900        1.07760        0.80520
H         -5.11370        0.99420       -0.94300
H          6.37590       -1.07760       -1.00590
H          6.39730       -1.20520        0.75450
H         -6.43020       -1.13310       -0.87200
H         -6.43220       -1.06550        0.90670
H          7.69250        0.92910        0.90600
H          8.53160       -0.27500       -0.08690
H          7.67140        1.06570       -0.86350
H         -8.31240       -0.19160       -0.01820
