7
6367
Cl        -1.62600        0.09930        0.00020
O          0.69610       -1.18600        0.00030
C          0.83150        1.20050        0.00020
C          0.09850       -0.11370       -0.00070
H          0.57250        1.77360       -0.89410
H          1.90990        1.01690       -0.00440
H          0.57890        1.76850        0.89950
