31
8200
O         -0.00050       -0.32040        0.00000
O          3.56530        0.37360       -0.01870
O         -3.56640        0.37310        0.01870
O          7.13260       -0.31980        0.02300
O         -7.13230       -0.31960       -0.02300
C          1.17520        0.48030        0.00070
C         -1.17490        0.47920       -0.00070
C          2.39110       -0.42600        0.00130
C         -2.39070       -0.42730       -0.00130
C          4.74110       -0.42660        0.00320
C         -4.74090       -0.42620       -0.00320
C          5.95690        0.47960       -0.01950
C         -5.95660        0.48000        0.01950
H          1.19220        1.12680       -0.88520
H          1.19190        1.12770        0.88580
H         -1.19240        1.12680       -0.88570
H         -1.19260        1.12590        0.88500
H          2.36730       -1.08360       -0.87610
H          2.37990       -1.06260        0.89430
H         -2.36750       -1.08470        0.87630
H         -2.38020       -1.06370       -0.89450
H          4.75730       -1.04980        0.90570
H          4.75890       -1.09720       -0.86450
H         -4.75760       -1.04950       -0.90550
H         -4.75920       -1.09690        0.86440
H          5.95150        1.15730        0.84070
H          5.96850        1.09010       -0.92850
H         -5.95130        1.15770       -0.84060
H         -5.96840        1.09050        0.92860
H          7.89090        0.28880        0.00710
H         -7.89070        0.28880       -0.00710
