12
8255
C          0.00000       -0.06120        0.00010
C         -1.27340        0.73140        0.00000
C          1.27280        0.73230        0.00000
C          0.00060       -1.40250       -0.00010
H         -1.32400        1.36890        0.88860
H         -1.32380        1.36880       -0.88870
H         -2.15990        0.08830       -0.00020
H          1.32280        1.36980       -0.88870
H          1.32290        1.36990        0.88860
H          2.15980        0.09000       -0.00020
H          0.92730       -1.96670       -0.00020
H         -0.92560       -1.96750       -0.00010
