40
82675
S         -0.27390       -1.28550        0.92490
S          0.27670       -1.17280       -1.05200
C         -4.01010        0.46430        0.54580
C          4.00870        0.52150       -0.49090
C         -5.32360       -0.07510       -0.02530
C          5.32380       -0.07720        0.01340
C         -2.89900       -0.58760        0.47100
C          2.89810       -0.53290       -0.53040
C         -6.46230        0.94660        0.00400
C          6.46230        0.94200        0.09480
C         -1.58380       -0.03100        1.00950
C          1.58150        0.07940       -1.00040
C         -7.74990        0.43970       -0.62690
C          7.75160        0.36890        0.66230
H         -4.16110        0.77010        1.58810
H         -3.70900        1.35800       -0.01410
H          4.15700        0.94110       -1.49310
H          3.70890        1.34730        0.16560
H         -5.15990       -0.39610       -1.06170
H         -5.62690       -0.96650        0.53770
H          5.16280       -0.51140        1.00820
H          5.62580       -0.90060       -0.64570
H         -2.78350       -0.90430       -0.57240
H         -3.20050       -1.47060        1.04880
H          2.78570       -0.96340        0.47190
H          3.19860       -1.34610       -1.20330
H         -6.66370        1.23530        1.04240
H         -6.14800        1.85560       -0.52290
H          6.66100        1.34420       -0.90570
H          6.14910        1.78670        0.72000
H         -1.70720        0.24220        2.06310
H         -1.27790        0.87570        0.47690
H          1.70340        0.46900       -2.01700
H          1.27840        0.92200       -0.36970
H         -8.11550       -0.45020       -0.10490
H         -7.59370        0.18100       -1.67890
H         -8.52700        1.20860       -0.57630
H          8.11610       -0.45750        0.04390
H          7.59810       -0.00490        1.67950
H          8.52840        1.13910        0.69530
