34
84467
O         -2.27150        1.40340       -0.00040
C          1.49000       -0.53330       -0.02490
C          2.71560        0.38210       -0.01740
C          0.19230        0.27440        0.00660
C          4.01390       -0.42650       -0.01530
C         -1.02800       -0.63820        0.03260
C          5.23810        0.48770        0.02570
C         -2.30770        0.17340        0.02260
C         -3.61090       -0.60890        0.01100
C         -4.83630        0.30010       -0.02800
C          6.53120       -0.31140       -0.00610
C         -6.12670       -0.50270       -0.00630
H          1.50890       -1.16650       -0.92030
H          1.52620       -1.20120        0.84450
H          2.69100        1.03800       -0.89610
H          2.68530        1.02760        0.86900
H          0.18670        0.92640        0.88930
H          0.15210        0.93020       -0.87250
H          4.02940       -1.09770        0.85210
H          4.05380       -1.05680       -0.91210
H         -1.02140       -1.25810        0.93540
H         -1.03140       -1.29140       -0.84660
H          5.21970        1.17360       -0.82930
H          5.21510        1.10070        0.93410
H         -3.63480       -1.23220        0.91180
H         -3.60400       -1.26380       -0.86730
H         -4.81120        0.92280       -0.93030
H         -4.82290        0.98380        0.82920
H          6.60040       -0.91000       -0.92010
H          6.59620       -0.98680        0.85300
H          7.39360        0.36180        0.02500
H         -6.18640       -1.17240       -0.87020
H         -6.19720       -1.10760        0.90330
H         -6.99100        0.16810       -0.03610
