32
85150
C          2.56990        0.01120       -0.00720
C          1.18990       -0.69260       -0.10250
C         -0.03510        0.22580       -0.00880
C         -1.33390       -0.58540       -0.04970
C          2.77460        0.99660       -1.16960
C          2.61520        0.80070        1.31600
C          3.71760       -1.01220       -0.00290
C         -2.56160        0.32580        0.00590
C         -3.85660       -0.48610       -0.00130
C         -5.08000        0.41620        0.02010
H          1.14230       -1.24980       -1.04770
H          1.12250       -1.44510        0.69500
H         -0.02130        0.79890        0.92350
H         -0.03310        0.94190       -0.83750
H         -1.36480       -1.18510       -0.96760
H         -1.35600       -1.28470        0.79500
H          3.76910        1.45550       -1.12560
H          2.04340        1.81110       -1.15250
H          2.68720        0.48580       -2.13490
H          3.62110        1.19910        1.49530
H          2.35940        0.16330        2.16990
H          1.93750        1.66040        1.31320
H          3.62110       -1.70940        0.83690
H          3.71820       -1.60110       -0.92670
H          4.69340       -0.52070        0.08110
H         -2.52200        0.94350        0.91130
H         -2.54980        1.00890       -0.85220
H         -3.88390       -1.15150        0.86940
H         -3.89430       -1.11960       -0.89520
H         -5.08970        1.04270        0.91770
H         -5.09990        1.07130       -0.85670
H         -5.99460       -0.18500        0.01560
