24
8680
C          1.47710       -0.65140        0.13110
C          2.41190        0.54820       -0.12570
C          0.00420       -0.28770        0.05490
C          1.79880       -1.79430       -0.83960
C          2.26900        1.65150        0.91570
C         -0.40190        0.67790       -0.84550
C         -0.88900       -0.93230        0.88850
C         -1.75440        1.01220       -0.91510
C         -2.24150       -0.59820        0.81880
C         -2.67410        0.37410       -0.08300
H          1.68980       -1.01210        1.14730
H          2.30600        0.96150       -1.13430
H          3.44810        0.18720       -0.07250
H          1.62080       -1.49770       -1.87950
H          2.84720       -2.09800       -0.74910
H          1.17790       -2.67330       -0.63390
H          3.02870        2.42210        0.74780
H          1.29160        2.13940        0.87240
H          2.41180        1.25650        1.92670
H          0.27380        1.17790       -1.52900
H         -0.56170       -1.69180        1.59210
H         -2.09280        1.76450       -1.62160
H         -2.95790       -1.09560        1.46600
H         -3.72740        0.63310       -0.13840
