6
878
S          0.90200        0.00000        0.00000
C         -0.90200        0.00000        0.00000
H         -1.27350        1.01010        0.19000
H         -1.27360       -0.66920        0.78010
H         -1.27310       -0.34080       -0.96970
H          1.05500        0.44170        1.25700
