32
88038
C         -0.78350        0.04160        0.21120
C          0.78370       -0.04170        0.21130
C         -1.44380       -1.35940        0.24010
C         -1.36060        0.88930       -0.95220
C          1.36080       -0.88940       -0.95220
C          1.44370        1.35940        0.24010
C         -1.02880       -2.21290        1.43270
C         -2.87560        1.04190       -0.93200
C          2.87580       -1.04190       -0.93170
C          1.02840        2.21310        1.43270
H         -1.08430        0.53630        1.14450
H          1.08440       -0.53630        1.14470
H         -1.25930       -1.90280       -0.69290
H         -2.53100       -1.24530        0.31450
H         -1.06770        0.45610       -1.91520
H         -0.93670        1.89800       -0.91740
H          1.06790       -0.45630       -1.91520
H          0.93680       -1.89810       -0.91730
H          1.25920        1.90270       -0.69290
H          2.53100        1.24560        0.31460
H         -1.63950       -3.12100        1.47220
H         -1.16920       -1.67080        2.37310
H          0.01630       -2.52690        1.36300
H         -3.18420        1.78910       -1.67090
H         -3.22650        1.37400        0.05000
H         -3.38110        0.10720       -1.19080
H          3.22650       -1.37380        0.05030
H          3.18460       -1.78900       -1.67050
H          3.38120       -0.10710       -1.19050
H          1.63920        3.12100        1.47220
H          1.16870        1.67100        2.37320
H         -0.01670        2.52710        1.36290
