11
8881
Cl         1.99950       -0.78050       -0.38610
Cl        -2.00190       -0.77620        0.38990
C          0.00000        1.06140       -0.00230
C          1.06990        0.25040        0.72550
C         -1.06750        0.24480       -0.72700
H         -0.48810        1.72200        0.72550
H          0.48690        1.71950       -0.73310
H          1.78140        0.92590        1.21060
H          0.64000       -0.39120        1.49950
H         -0.63610       -0.40320       -1.49480
H         -1.77720        0.91690       -1.21950
