30
8914
O          5.61080        0.31850       -0.05000
C         -0.60740       -0.41950        0.06140
C          0.67360        0.41720        0.04430
C         -1.88650        0.42300        0.05410
C          1.91760       -0.47440        0.02000
C         -3.20270       -0.36050        0.04830
C          3.19960        0.36210       -0.02670
C         -4.44230        0.53200       -0.01570
C          4.45320       -0.50420       -0.02500
C         -5.71590       -0.29410       -0.11080
H         -0.60990       -1.06300        0.94970
H         -0.61740       -1.08470       -0.81090
H          0.69980        1.06610        0.92780
H          0.67160        1.06970       -0.83710
H         -1.87680        1.08510        0.92930
H         -1.86600        1.07710       -0.82700
H          1.92860       -1.11400        0.91080
H          1.88200       -1.13590       -0.85400
H         -3.25040       -0.98840        0.94650
H         -3.20230       -1.04060       -0.81260
H          3.20260        1.00080       -0.91870
H          3.23130        1.04620        0.83060
H         -4.48630        1.16980        0.87450
H         -4.37920        1.19400       -0.88700
H          4.49770       -1.13760        0.86680
H          4.47860       -1.15190       -0.90670
H         -6.59080        0.36230       -0.15200
H         -5.71480       -0.91530       -1.01210
H         -5.82370       -0.94990        0.75900
H          5.59010        0.87810        0.74500
