48
91373
S          9.78500        0.45470        0.14250
C         -0.67400        0.43040       -0.10880
C          0.62180       -0.38770       -0.09930
C         -1.97310       -0.38040       -0.08450
C          1.91980        0.42630       -0.06720
C         -3.23160        0.48890       -0.04530
C          3.17860       -0.44460       -0.07990
C         -4.49780       -0.37050       -0.02930
C          4.47910        0.36670       -0.05790
C         -5.75720        0.49560        0.04870
C          5.73550       -0.50650        0.00360
C         -7.02280       -0.36460        0.03090
C          7.03770        0.30340        0.02700
C         -8.31380        0.45570        0.07570
C          8.28570       -0.57190        0.11450
C         -9.57300       -0.39560        0.12960
H         -0.67510        1.07450       -0.99720
H         -0.66490        1.10210        0.75900
H          0.63070       -1.03470       -0.98560
H          0.60620       -1.05600        0.77090
H         -2.00410       -1.02790       -0.96940
H         -1.96300       -1.04140        0.79100
H          1.92460        1.05790        0.82930
H          1.93960        1.10170       -0.93120
H         -3.24680        1.15260       -0.91800
H         -3.20680        1.12660        0.84640
H          3.15810       -1.11410        0.78880
H          3.16940       -1.08280       -0.97200
H         -4.53090       -0.98960       -0.93400
H         -4.46970       -1.05280        0.82900
H          4.46840        1.03880        0.80900
H          4.52190        1.00180       -0.95110
H         -5.73580        1.09890        0.96410
H         -5.77810        1.19210       -0.79820
H          5.69010       -1.13850        0.89920
H          5.74790       -1.18180       -0.86080
H         -7.02800       -0.98770       -0.87210
H         -7.00310       -1.04960        0.88760
H          7.00680        0.98940        0.88340
H          7.08070        0.92230       -0.87850
H         -8.29620        1.11200        0.95410
H         -8.36110        1.10630       -0.80570
H          8.26470       -1.18130        1.02350
H          8.34210       -1.24720       -0.74510
H         -9.64440       -1.04180       -0.75090
H        -10.46230        0.24170        0.15860
H         -9.57790       -1.02920        1.02210
H         10.66070       -0.55810        0.21870
