35
92239
C          2.98770        0.36960        0.29920
C          1.59690        0.90360       -0.10900
C          0.44160       -0.03710        0.25240
C         -0.90970        0.58600       -0.11010
C         -2.10290       -0.31950        0.20890
C          3.29830       -0.98740       -0.36340
C         -3.45450        0.31290       -0.13030
C          4.04550        1.42480       -0.04610
C         -4.60350       -0.65950        0.13980
C          4.65280       -1.56690        0.02300
C         -5.95210       -0.02660       -0.16450
H          2.99280        0.23250        1.38860
H          1.58140        1.09360       -1.19010
H          1.43020        1.87100        0.38220
H          0.46850       -0.26280        1.32480
H          0.53580       -0.98500       -0.28720
H         -0.92170        0.82820       -1.18010
H         -1.02660        1.53370        0.43020
H         -2.08310       -0.57810        1.27490
H         -1.99290       -1.25930       -0.34650
H          2.54330       -1.72410       -0.07020
H          3.24600       -0.89370       -1.45480
H         -3.46620        0.61030       -1.18590
H         -3.59030        1.22430        0.46420
H          3.77820        2.39800        0.38000
H          5.02500        1.15620        0.36100
H          4.14540        1.54620       -1.13000
H         -4.58470       -0.97580        1.18930
H         -4.48150       -1.56010       -0.47290
H          5.47590       -0.97080       -0.38120
H          4.76160       -1.62160        1.11070
H          4.75460       -2.58040       -0.37890
H         -6.01590        0.27410       -1.21520
H         -6.75880       -0.73910        0.03460
H         -6.11940        0.85860        0.45730
