15
9253
C         -1.05510       -0.65800        0.24460
C         -0.97160        0.78050       -0.23490
C          0.29520       -1.23270       -0.15360
C          0.44690        1.19150        0.13090
C          1.28460       -0.08140        0.01300
H         -1.17420       -0.68960        1.33400
H         -1.88870       -1.20200       -0.20820
H         -1.10920        0.82650       -1.32170
H         -1.72400        1.42200        0.23270
H          0.56830       -2.10410        0.44890
H          0.27130       -1.54810       -1.20360
H          0.82100        1.99340       -0.51270
H          0.47590        1.55600        1.16480
H          1.89790       -0.21640        0.91060
H          1.96550       -0.03230       -0.84350
