8
9255
O          1.03440       -0.58510        0.00000
N         -1.18450       -0.14780        0.00010
C          0.86910        0.76690        0.00010
C         -0.47850        1.02780       -0.00010
C         -0.24060       -1.06180        0.00000
H          1.76830        1.36430        0.00010
H         -0.97290        1.98770       -0.00010
H         -0.35340       -2.13550        0.00000
