10
9259
N         -1.19290       -0.67930       -0.00010
N         -1.19210        0.68070        0.00010
C          1.20580       -0.69260        0.00000
C          1.20660        0.69120        0.00000
C         -0.01460       -1.33790        0.00000
C         -0.01280        1.33800        0.00000
H          2.13430       -1.25190        0.00010
H          2.13590        1.24930       -0.00010
H         -0.08220       -2.41950       -0.00010
H         -0.07920        2.41960        0.00000
