8
92756
Cl        -1.18060        1.67840       -0.48500
Cl        -1.75310       -1.16530       -0.40330
Cl         2.02590        0.96110       -0.02550
F         -0.49330        0.10650        1.42610
F          1.18900       -1.44840       -0.06460
C         -0.57930        0.09410        0.06800
C          0.79150       -0.22630       -0.51560
H          0.77700       -0.26120       -1.60960
