53
93030
C          4.12530       -0.05750       -0.30450
C          5.36240       -0.80790        0.20020
C          2.80740       -0.66730        0.18610
C          6.69790       -0.18620       -0.26630
C          1.53330        0.05270       -0.26910
C          0.21410       -0.58920        0.17350
C         -1.01980        0.21430       -0.24480
C         -2.33990       -0.46690        0.12980
C         -3.57420        0.34660       -0.26730
C         -4.86540       -0.37040        0.13700
C          7.03180        1.10090        0.51450
C         -6.09720        0.45990       -0.23120
C          7.80770       -1.23560       -0.13150
C         -7.41930       -0.19960        0.17110
C          8.31300        1.78540        0.05660
C         -8.64560        0.66260       -0.13010
C         -9.93150       -0.04170        0.27600
H          5.29380       -1.84110       -0.16410
H          5.34230       -0.86280        1.29600
H          4.12940       -0.04760       -1.40120
H          4.16360        0.98730        0.02200
H          2.81720       -0.69660        1.28300
H          2.75730       -1.71050       -0.15060
H          6.61050        0.06290       -1.33200
H          1.54050        0.11930       -1.36440
H          1.56730        1.08440        0.10310
H          0.21670       -0.70140        1.26460
H          0.15160       -1.59950       -0.24870
H         -0.99610        0.37340       -1.32990
H         -0.97850        1.20600        0.22200
H         -2.38480       -1.45160       -0.35190
H         -2.35600       -0.64270        1.21260
H         -3.56920        0.51570       -1.35070
H         -3.53210        1.33080        0.21470
H         -4.86080       -0.55670        1.21780
H         -4.91870       -1.34630       -0.36010
H          6.21190        1.81900        0.40300
H          7.11130        0.87870        1.58570
H         -6.10280        0.64290       -1.31290
H         -6.02680        1.44110        0.25500
H          8.74800       -0.88120       -0.56450
H          7.54150       -2.15690       -0.66110
H          7.98720       -1.48860        0.91890
H         -7.51180       -1.16020       -0.35080
H         -7.39440       -0.42480        1.24470
H          8.29570        1.97130       -1.02190
H          9.19700        1.18670        0.29410
H          8.42430        2.74890        0.56450
H         -8.68250        0.89340       -1.20100
H         -8.57010        1.61570        0.40570
H        -10.05080       -0.98470       -0.26710
H        -10.79630        0.59070        0.05270
H         -9.93760       -0.25940        1.34880
