32
93280
C          0.62440        0.35620        0.13570
C         -0.34180       -0.75180       -0.40620
C          2.08830       -0.14830        0.35390
C         -1.78520       -0.25860       -0.68370
C          0.57630        1.60860       -0.75690
C         -0.38710       -1.98500        0.50870
C         -2.56790        0.19520        0.55170
C          2.77990       -0.61720       -0.92900
C          2.96480        0.89890        1.05450
C         -3.95170        0.70210        0.17130
H          0.25430        0.65920        1.12470
H          0.04040       -1.08710       -1.37900
H          2.05040       -1.00420        1.03840
H         -2.34040       -1.07920       -1.15880
H         -1.77110        0.54180       -1.43180
H          0.78790        1.36350       -1.80250
H         -0.40630        2.08840       -0.71380
H          1.29090        2.37020       -0.43450
H         -0.57940       -1.70710        1.54990
H         -1.16860       -2.68360        0.19050
H          0.55810       -2.53550        0.47540
H         -2.68030       -0.63290        1.25930
H         -2.03280        0.99790        1.06920
H          3.79260       -0.97350       -0.70900
H          2.24330       -1.44770       -1.39590
H          2.86780        0.19120       -1.66140
H          3.90910        0.44690        1.37860
H          3.21710        1.73500        0.39550
H          2.46630        1.29560        1.94480
H         -4.49750        1.01960        1.06530
H         -4.53470       -0.08190       -0.32240
H         -3.88310        1.55900       -0.50650
