19
93922
C          0.67930       -0.00970        0.00000
C         -0.26900       -1.16880       -0.37900
C         -1.67870       -0.70760       -0.00120
C         -0.26500        1.16180        0.02170
C          1.77920        0.16950       -1.04860
C          1.29930       -0.22220        1.38570
C         -1.54510        0.77710        0.02130
H         -0.01030       -2.11140        0.11620
H         -0.23750       -1.36140       -1.46020
H         -1.97460       -1.07870        0.98540
H         -2.41270       -1.03960       -0.74100
H          0.05450        2.19360        0.07180
H          2.40300       -0.72860       -1.11910
H          1.36090        0.36370       -2.04320
H          2.43250        1.01330       -0.79790
H          1.94350       -1.10860        1.39400
H          1.91060        0.63790        1.68280
H          0.53270       -0.36420        2.15650
H         -2.38410        1.45600        0.06860
