22
6492
C         -0.36900       -0.78640       -0.60740
C         -0.36380        0.78250       -0.61490
C          0.83600       -1.11700        0.31570
C          0.83790        1.12090        0.30360
C          0.77890        0.00610        1.35760
C         -1.73910       -1.21500       -0.06360
C          2.08680       -0.67300       -0.41230
C          2.08760        0.66920       -0.41960
C         -1.70690        1.14350       -0.07090
C         -2.44850        0.06920        0.21190
H         -0.21640       -1.19430       -1.61490
H         -0.24200        1.18180       -1.62860
H          0.87640       -2.12840        0.72160
H          0.87800        2.13390        0.70640
H          1.63920        0.00920        2.04050
H         -0.13480        0.00760        1.95940
H         -1.65750       -1.82580        0.84080
H         -2.28900       -1.78910       -0.81690
H          2.81030       -1.31720       -0.88570
H          2.81170        1.30750       -0.89980
H         -2.04090        2.16200        0.06690
H         -3.45230        0.11820        0.60930
