12
9474
F         -2.36800        1.36700        0.00000
F         -2.36780       -1.36710       -0.00010
F          2.36770        1.36730       -0.00010
F          2.36790       -1.36710        0.00000
C         -1.20800        0.69740        0.00000
C         -1.20790       -0.69740        0.00010
C          1.20800        0.69740        0.00010
C          1.20800       -0.69740       -0.00010
C          0.00000        1.39480        0.00010
C          0.00010       -1.39480        0.00010
H          0.00000        2.48070        0.00010
H          0.00010       -2.48070        0.00010
