32
9541
F          6.16340       -0.39260        0.01690
C          0.01200        0.45580       -0.00370
C         -1.25820       -0.39750       -0.03090
C          1.30130       -0.37030       -0.01660
C         -2.51420        0.47860       -0.02930
C          2.57150        0.48320       -0.01430
C         -3.78470       -0.37460       -0.01870
C          3.82430       -0.39080       -0.00390
C         -5.07100        0.45360        0.01410
C          5.09160        0.44440        0.03540
C         -6.33590       -0.39000        0.05090
H          0.00320        1.09050        0.89120
H          0.01190        1.12980       -0.86940
H         -1.25410       -1.03420       -0.92370
H         -1.26900       -1.06190        0.84140
H          1.30790       -1.03270        0.85790
H          1.30330       -1.01670       -0.90310
H         -2.51490        1.12720       -0.91350
H         -2.50650        1.13170        0.85180
H          2.57980        1.13210       -0.89830
H          2.57030        1.13630        0.86670
H         -3.79560       -1.01970       -0.90610
H         -3.76650       -1.03850        0.85470
H          3.84580       -1.03480       -0.89110
H          3.81370       -1.06340        0.86200
H         -5.05850        1.10850        0.89350
H         -5.10500        1.10560       -0.86690
H          5.16580        1.10450       -0.83370
H          5.14920        1.04640        0.94690
H         -6.35440       -1.02680        0.94100
H         -6.40180       -1.03260       -0.83270
H         -7.22160        0.25270        0.07250
