12
9578
Br         3.24350        0.00040       -0.00030
F          1.30740       -2.37890       -0.00040
F          1.30690        2.37910       -0.00040
F         -1.41070        2.36740       -0.00070
F         -1.41030       -2.36790       -0.00030
F         -2.77740        0.00000       -0.00050
C          1.35160        0.00010        0.00020
C          0.65430       -1.20790        0.00030
C          0.65420        1.20800        0.00060
C         -0.74070        1.20790        0.00070
C         -0.74060       -1.20800        0.00030
C         -1.43820       -0.00010        0.00050
