8
9666
Cl        -2.13190        0.39750       -0.49460
Cl         0.74190        1.65880        0.59420
Cl         2.05650       -0.75280       -0.34240
F         -0.62710       -1.02470        1.01970
C         -0.64580       -0.55220       -0.25510
C          0.60640        0.27340       -0.52190
H         -0.70160       -1.41340       -0.92810
H          0.61020        0.66740       -1.54250
