8
9890
F          0.93370       -1.08990        0.27230
F          0.93360        1.08980        0.27260
F         -1.52440       -0.00020        0.56040
C          0.57420        0.00020       -0.44800
C         -0.91700        0.00010       -0.65730
H          1.12590        0.00030       -1.39160
H         -1.24470        0.89550       -1.19130
H         -1.24470       -0.89510       -1.19160
