17
10352
C          0.02880       -1.11670       -0.31190
C          0.02850        1.11670       -0.31190
C          0.03730        0.00000       -1.36020
C         -1.25580       -0.77710        0.47260
C         -1.25590        0.77690        0.47260
C          1.20870       -0.67060        0.51940
C          1.20840        0.67080        0.51940
H          0.09790       -2.13090       -0.70590
H          0.09740        2.13090       -0.70600
H          0.93500        0.00000       -1.99160
H         -0.85180       -0.00010       -2.00100
H         -1.25150       -1.18300        1.48980
H         -2.14440       -1.15190       -0.04740
H         -2.14480        1.15150       -0.04750
H         -1.25180        1.18280        1.48980
H          1.88840       -1.31170        1.05740
H          1.88800        1.31210        1.05740
