10
10419
C         -2.06260       -0.00020        0.00000
C          2.06260       -0.00030        0.00000
C         -0.60040        0.00020        0.00000
C          0.60050        0.00030        0.00000
H         -2.45180       -0.33750        0.96540
H         -2.45210        1.00440       -0.19060
H         -2.45170       -0.66770       -0.77470
H          2.45150       -1.02270        0.02430
H          2.45200        0.53170        0.87330
H          2.45210        0.48970       -0.89740
