19
10687
O          2.35880       -0.88420        0.00040
C         -0.03680       -0.76400       -0.00040
C         -1.19750        0.00970       -0.00030
C          1.21360       -0.14560       -0.00020
C         -1.10780        1.40170        0.00000
C         -0.12730       -2.25660        0.00010
C         -2.54830       -0.62760        0.00040
C          1.30300        1.24650        0.00000
C          0.14240        2.02010        0.00020
H         -2.00180        2.01970        0.00020
H         -0.66130       -2.60730       -0.88940
H          0.85120       -2.74640       -0.00670
H         -0.64990       -2.60690        0.89640
H         -2.68590       -1.24260       -0.89480
H         -2.68310       -1.24690        0.89320
H         -3.34930        0.12000        0.00360
H          2.27030        1.74180        0.00040
H          0.21220        3.10400        0.00050
H          3.12400       -0.28390        0.00050
