20
107585
Cl         0.06740        2.20990       -0.55200
C         -0.01240       -0.43120        0.30670
C          1.24190       -0.83180       -0.50320
C         -1.27340       -0.80060       -0.50760
C          0.00480        1.03300        0.78150
C          2.55250       -0.62130        0.24170
C         -2.58090       -0.55800        0.23290
H         -0.02270       -1.05260        1.21330
H          1.16930       -1.89650       -0.75980
H          1.27800       -0.28970       -1.45540
H         -1.22610       -1.86620       -0.76620
H         -1.29240       -0.25420       -1.45780
H          0.87040        1.22470        1.42250
H         -0.87990        1.26510        1.38120
H          2.53320       -1.11350        1.21910
H          2.76610        0.44100        0.38980
H          3.38200       -1.04500       -0.33390
H         -2.57530       -1.04550        1.21280
H         -3.41780       -0.96640       -0.34300
H         -2.77220        0.50950        0.37430
