24
10812
C          2.07510        0.17560       -0.00050
C          0.59100        0.32440        0.00020
C          2.59410       -0.54260       -1.26050
C          2.59580       -0.53990        1.26040
C         -0.22400       -0.80770        0.00080
C          0.01790        1.59620       -0.00050
C         -1.61190       -0.66790        0.00060
C         -1.36990        1.73600       -0.00060
C         -2.18470        0.60400       -0.00010
C         -2.48350       -1.87820        0.00020
H          2.53170        1.17490       -0.00180
H          2.25330       -1.58240       -1.30930
H          3.68940       -0.54990       -1.27420
H          2.24990       -0.03370       -2.16780
H          2.25290       -0.02910        2.16710
H          3.69110       -0.54740        1.27260
H          2.25500       -1.57970        1.31180
H          0.21250       -1.80340        0.00290
H          0.63790        2.48880       -0.00110
H         -1.81610        2.72630       -0.00070
H         -3.26460        0.72650        0.00170
H         -2.02960       -2.68870       -0.58010
H         -2.64390       -2.22580        1.02560
H         -3.45800       -1.66670       -0.45310
