27
10864
C         -1.45100        0.06180        0.14840
C         -2.88000        0.02740       -0.40210
C         -0.38410        0.06590       -0.95240
C         -3.90840       -0.00170        0.72920
C          1.03010        0.02460       -0.43040
C         -5.32790       -0.07500        0.18960
C          1.69330        1.21340       -0.16580
C          1.64410       -1.20140       -0.22330
C          3.00120        1.17530        0.31710
C          2.95210       -1.23940        0.25980
C          3.63060       -0.05100        0.53000
H         -1.32500        0.94960        0.78110
H         -1.29610       -0.80790        0.79990
H         -3.05050        0.90620       -1.03560
H         -3.00510       -0.85850       -1.03640
H         -0.51230        0.95470       -1.58440
H         -0.54350       -0.79000       -1.62160
H         -3.80390        0.89550        1.35020
H         -3.72650       -0.86750        1.37650
H         -5.47420       -0.98020       -0.40830
H         -6.04660       -0.09320        1.01490
H         -5.55380        0.79250       -0.43870
H          1.21080        2.17330       -0.32640
H          1.12330       -2.13230       -0.42860
H          3.52940        2.10050        0.52810
H          3.44210       -2.19430        0.42630
H          4.64900       -0.08070        0.90650
