18
10956
N         -3.26940        0.00570       -0.09720
C          1.69970        0.00100       -0.46340
C          0.18220       -0.05550       -0.73640
C          2.11170        1.26680        0.28950
C          2.12610       -1.23490        0.33420
C         -0.71060        0.00970        0.50600
C         -2.13960        0.00730        0.16740
H          2.21710       -0.01360       -1.43070
H         -0.04710       -0.96970       -1.30040
H         -0.07740        0.77790       -1.40350
H          1.75090        2.16160       -0.22830
H          3.20350        1.33420        0.34920
H          1.72760        1.28340        1.31420
H          3.21800       -1.27270        0.41700
H          1.72260       -1.23200        1.35150
H          1.80110       -2.15490       -0.16310
H         -0.50790       -0.84190        1.16370
H         -0.49740        0.91730        1.08020
