27
11002
S         -0.00400        0.88130       -0.00010
C          2.74240        0.36900       -0.05020
C         -2.74230        0.37070        0.05000
C          1.37130       -0.30590       -0.02500
C         -1.36990       -0.30190        0.02510
C          3.91380       -0.61660       -0.02460
C         -3.91190       -0.61690        0.02480
C          5.24730        0.11150        0.05120
C         -5.24670        0.10880       -0.05120
H          2.82610        0.99630       -0.94710
H          2.82850        1.03890        0.81520
H         -2.82740        0.99820        0.94670
H         -2.83000        1.04010       -0.81580
H          1.26520       -0.94530       -0.90790
H          1.29480       -0.94060        0.86430
H         -1.26500       -0.94190        0.90780
H         -1.29460       -0.93800       -0.86340
H          3.81930       -1.28270        0.84080
H          3.88940       -1.24410       -0.92280
H         -3.81630       -1.28310       -0.84030
H         -3.88640       -1.24410        0.92330
H          6.07150       -0.60850        0.06440
H          5.31250        0.71860        0.95970
H          5.38450        0.76930       -0.81300
H         -6.06950       -0.61270       -0.06410
H         -5.31300        0.71560       -0.96000
H         -5.38510        0.76670        0.81270
