15
11000
C          1.68560       -0.00190       -0.16290
C          0.96310        1.29170        0.05440
C          0.96030       -1.29370        0.05450
C         -0.34610        1.56340        0.11220
C         -0.34950       -1.56260        0.11220
C         -1.45600        0.67010       -0.08520
C         -1.45740       -0.66710       -0.08510
H          2.11770       -0.00240       -1.17050
H          2.53450       -0.00270        0.53410
H          1.62960        2.14560        0.18210
H          1.62490       -2.14900        0.18220
H         -0.63480        2.59970        0.28150
H         -0.64030       -2.59820        0.28140
H         -2.40990        1.17180       -0.24050
H         -2.41230       -1.16670       -0.24050
