59
110905
C         -5.46940       -0.32200       -0.06460
C         -4.14450       -0.23980        0.70230
C         -6.69970       -0.22390        0.84480
C         -2.91300       -0.26030       -0.20560
C         -8.05900       -0.35390        0.12450
C         -1.62500       -0.10070        0.60570
C         -0.38940       -0.15340       -0.29580
C          0.89750       -0.02790        0.52180
C          2.17140       -0.10670       -0.32560
C          3.48990        0.09700        0.42730
C          4.72840       -0.04870       -0.46030
C         -8.38980        0.81980       -0.81610
C          6.01220        0.17580        0.34230
C          7.28800        0.01860       -0.49090
C         -8.16640       -1.67760       -0.64000
C          8.60790        0.14940        0.27570
C         -8.30940        2.18280       -0.14380
C          9.84440       -0.07900       -0.59410
C         11.12580        0.15050        0.19250
H         -5.48200       -1.26720       -0.61810
H         -5.50050        0.48450       -0.80620
H         -4.08730       -1.07370        1.41290
H         -4.13670        0.68290        1.29600
H         -6.66180        0.70890        1.41870
H         -6.63540       -1.02780        1.59050
H         -2.98500        0.54970       -0.94130
H         -2.88750       -1.20380       -0.76380
H         -8.82770       -0.36980        0.90940
H         -1.64540        0.85300        1.14680
H         -1.56510       -0.89790        1.35670
H         -0.43580        0.65500       -1.03530
H         -0.37770       -1.09960       -0.85030
H          0.92840       -0.81950        1.28060
H          0.88870        0.92700        1.06180
H          2.10920        0.64390       -1.12390
H          2.19730       -1.08440       -0.82360
H          3.54550       -0.62980        1.24710
H          3.48550        1.09280        0.88730
H          4.67900        0.67360       -1.28370
H          4.74360       -1.04970       -0.90750
H         -9.40670        0.68500       -1.20550
H         -7.72170        0.81270       -1.68550
H          5.99730        1.17960        0.78440
H          6.04460       -0.53650        1.17620
H          7.26660       -0.96570       -0.97610
H          7.27390        0.76060       -1.29930
H         -7.51830       -1.69600       -1.52190
H         -9.19390       -1.83400       -0.98670
H         -7.90170       -2.52400        0.00230
H          8.65560        1.14960        0.72400
H          8.61320       -0.56850        1.10510
H         -8.90940        2.20790        0.77120
H         -7.27820        2.44970        0.10510
H         -8.69130        2.95510       -0.81960
H          9.82430        0.60160       -1.45320
H          9.83660       -1.10140       -0.98910
H         11.18980       -0.53280        1.04550
H         11.99800       -0.02070       -0.44620
H         11.17700        1.17700        0.56930
