24
11304
C          0.21620        0.70760       -0.00010
C          0.21610       -0.70760        0.00000
C         -1.00890        1.39450       -0.00010
C         -1.00890       -1.39430        0.00000
C         -2.21650        0.69590       -0.00020
C         -2.21650       -0.69580       -0.00010
C          1.44120        1.39430       -0.00010
C          1.44110       -1.39450        0.00010
C         -1.08050        2.89030        0.00030
C         -1.08100       -2.89010        0.00010
C          2.64890        0.69570       -0.00010
C          2.64890       -0.69600        0.00000
H         -3.16830        1.22060       -0.00020
H         -3.16830       -1.22050        0.00000
H          1.49080        2.48010       -0.00010
H          1.49060       -2.48030        0.00010
H         -0.59980        3.29900       -0.89470
H         -0.60010        3.29840        0.89580
H         -2.11520        3.25130        0.00020
H         -2.11570       -3.25080        0.00010
H         -0.60060       -3.29850        0.89550
H         -0.60040       -3.29870       -0.89500
H          3.58970        1.23850       -0.00010
H          3.58960       -1.23890        0.00010
