24
11327
C          0.47450        0.54260       -0.00010
C          0.33420       -0.86570        0.00010
C         -0.67650        1.34740       -0.00020
C         -2.08520       -0.61300        0.00000
C         -0.95280       -1.42770        0.00010
C         -1.94740        0.77190       -0.00020
C          1.76150        1.10450       -0.00010
C          1.48510       -1.67060        0.00010
C         -0.59890        2.84310        0.00040
C         -3.44460       -1.22700        0.00000
C          2.89400        0.28970       -0.00010
C          2.75610       -1.09520        0.00010
H         -1.07120       -2.51000        0.00220
H         -2.83570        1.39950        0.00180
H          1.91850        2.18010       -0.00030
H          1.40130       -2.75540        0.00020
H         -0.08040        3.20120        0.89610
H         -0.07960        3.20190       -0.89450
H         -1.59220        3.30570        0.00010
H         -3.78650       -1.38210        1.02810
H         -4.16770       -0.58750       -0.51770
H         -3.44280       -2.19180       -0.51860
H          3.88400        0.73660       -0.00010
H          3.63820       -1.72890        0.00010
