17
11420
N         -0.62070       -1.39230        0.00000
C          0.59340        0.69830        0.00000
C          0.53190       -0.68590        0.00020
C         -0.60520        1.40290        0.00000
C          1.88970        1.43260       -0.00010
C          1.78830       -1.49390       -0.00010
C         -1.81170        0.71150        0.00000
C         -1.76560       -0.67330       -0.00010
H         -0.61620        2.48940        0.00000
H          1.73900        2.51790       -0.00080
H          2.47260        1.18810        0.89370
H          2.47310        1.18710       -0.89330
H          2.38480       -1.28430        0.89330
H          1.56140       -2.56570        0.00060
H          2.38380       -1.28510       -0.89440
H         -2.75820        1.23980        0.00000
H         -2.67870       -1.25940       -0.00020
