23
11507
C          0.82800       -0.59390       -0.41050
C         -0.60740       -0.12920       -0.73410
C          1.61880        0.37380        0.48960
C         -1.53350        0.01890        0.47610
C          0.83790       -1.99750        0.20430
C          1.75390        1.77490       -0.08880
C         -2.89770        0.55300        0.06340
H          1.36010       -0.66210       -1.36940
H         -1.05610       -0.84900       -1.43170
H         -0.56550        0.82140       -1.27910
H          2.62870       -0.02970        0.63780
H          1.16550        0.43530        1.48560
H         -1.09990        0.70700        1.20880
H         -1.66920       -0.94750        0.97300
H          1.86350       -2.37440        0.28360
H          0.40490       -2.00400        1.20960
H          0.27370       -2.70050       -0.41740
H          2.17040        1.74510       -1.10050
H          2.42430        2.37470        0.53530
H          0.78950        2.28990       -0.12350
H         -3.38400       -0.12140       -0.64860
H         -2.80850        1.53960       -0.40230
H         -3.54770        0.64860        0.93890
