17
11565
N          0.00000        1.75550        0.00000
C         -1.20260       -0.34160        0.00000
C          1.20260       -0.34180        0.00010
C          0.00010       -1.03970        0.00000
C         -2.50570       -1.05910        0.00000
C          2.50570       -1.05900        0.00000
C         -1.14880        1.04290        0.00010
C          1.14870        1.04280       -0.00020
H          0.00000       -2.12690       -0.00010
H         -3.29240       -0.45320        0.46240
H         -2.80550       -1.29550       -1.02570
H         -2.44070       -1.99120        0.57140
H          2.44020       -1.99200       -0.57000
H          3.29170       -0.45370       -0.46410
H          2.80630       -1.29400        1.02580
H         -2.05310        1.64360       -0.00150
H          2.05310        1.64350        0.00130
