23
11582
C         -1.76370        0.00360       -0.35160
C         -0.33330        0.05070       -0.92010
C          0.75400       -0.00490        0.15730
C          2.15100        0.01810       -0.46520
C         -1.95960       -1.28350        0.45380
C         -2.08430        1.21460        0.52590
C          3.23600        0.00140        0.59980
H         -2.46100       -0.00430       -1.19860
H         -0.21370        0.96690       -1.51200
H         -0.19760       -0.78840       -1.61450
H          0.66230       -0.91700        0.75580
H          0.65600        0.84710        0.83890
H          2.27930       -0.84800       -1.12480
H          2.26900        0.91660       -1.08220
H         -1.41320       -1.27340        1.40200
H         -3.02000       -1.41280        0.69850
H         -1.64640       -2.16160       -0.12050
H         -1.49560        1.22660        1.44840
H         -3.14170        1.20650        0.81260
H         -1.89350        2.14720       -0.01500
H          4.22560        0.01760        0.13260
H          3.15570        0.87410        1.25580
H          3.16640       -0.90020        1.21670
