17
11603
F         -2.30360        0.91540       -0.24810
C          0.41460        0.08660        0.23690
C         -0.73920       -0.83480       -0.16510
C          1.77840       -0.39750       -0.26020
C         -2.07540       -0.29770        0.32110
C          2.92520        0.52810        0.11540
H          0.44220        0.17640        1.33000
H          0.22990        1.09340       -0.15790
H         -0.57590       -1.83790        0.24410
H         -0.76470       -0.91920       -1.25760
H          1.75130       -0.50010       -1.35160
H          1.97970       -1.39530        0.14770
H         -2.89210       -0.96450        0.03050
H         -2.09020       -0.17280        1.40770
H          2.77650        1.52570       -0.30960
H          3.87280        0.13330       -0.26390
H          3.00690        0.62640        1.20240
