56
11635
C         -0.64600        0.46300        0.23470
C          0.61920       -0.39770        0.22600
C         -1.90410       -0.40750        0.26240
C          1.91240        0.41610        0.11700
C         -3.20560        0.39960        0.24880
C          3.20850       -0.39770        0.02350
C         -4.49950       -0.42080        0.19470
C          4.46980        0.46810       -0.02920
C         -5.79890        0.38820        0.12260
C          5.76230       -0.34810       -0.13490
C         -7.05030       -0.48600        0.01870
C          7.06330        0.46070       -0.10430
C         -8.34230        0.32410       -0.13450
C          8.35720       -0.35810       -0.15540
C         -9.63250       -0.49480       -0.22460
C          9.65510        0.44710       -0.06270
C        -10.87730        0.35130       -0.43920
C         10.90870       -0.40740       -0.16380
H         -0.63470        1.12670        1.10730
H         -0.66270        1.10030       -0.65740
H          0.65420       -1.00570        1.13830
H          0.57380       -1.09730       -0.61810
H         -1.88910       -1.04400        1.15560
H         -1.89650       -1.07960       -0.60470
H          1.84690        1.06470       -0.76600
H          1.97690        1.08360        0.98560
H         -3.23380        1.04120        1.13850
H         -3.18930        1.07390       -0.61700
H          3.26960       -1.07020        0.88790
H          3.16720       -1.03310       -0.86950
H         -4.53720       -1.07350        1.07590
H         -4.45140       -1.08380       -0.67850
H          4.40770        1.15130       -0.88490
H          4.51370        1.09220        0.87180
H         -5.87430        1.02870        1.00960
H         -5.75270        1.05540       -0.74680
H          5.73530       -0.93620       -1.06080
H          5.78700       -1.07190        0.68980
H         -6.95160       -1.16120       -0.84010
H         -7.12490       -1.11810        0.91200
H          7.05900        1.16640       -0.94430
H          7.07310        1.06860        0.80920
H         -8.42630        1.01710        0.71240
H         -8.25850        0.94620       -1.03480
H          8.34090       -1.09030        0.66180
H          8.36460       -0.93690       -1.08760
H         -9.54680       -1.21190       -1.04960
H         -9.75240       -1.08100        0.69410
H          9.67280        0.99590        0.88630
H          9.67230        1.19640       -0.86300
H        -11.01480        1.05850        0.38480
H        -10.80700        0.92000       -1.37170
H        -11.76560       -0.28570       -0.49420
H         10.94210       -0.93990       -1.11950
H         11.80310        0.21910       -0.09090
H         10.94290       -1.14660        0.64280
