6
11641
Br        -1.52080       -0.18280        0.00000
C          0.21250        0.47190        0.00000
C          1.30830       -0.28910        0.00000
H          0.27130        1.55330        0.00000
H          2.29170        0.16840        0.00000
H          1.25350       -1.37230        0.00000
