11
11660
Cl        -1.45450        0.97150        0.00070
Cl         1.45490        0.97090       -0.00020
C          0.00000       -0.07360        0.00000
C          0.00030       -0.93470        1.25920
C         -0.00070       -0.93410       -1.25960
H          0.00080       -0.32210        2.16830
H         -0.88280       -1.58300        1.29660
H          0.88320       -1.58340        1.29590
H          0.88210       -1.58270       -1.29730
H         -0.00090       -0.32100       -2.16850
H         -0.88400       -1.58230       -1.29660
