16
11749
O         -1.32510       -1.15690        0.82400
O         -1.04780       -0.42560       -1.23570
N         -0.81540       -0.40270       -0.01790
C          0.13210        0.62400        0.47110
C          1.48450        0.39220       -0.20070
C         -0.46410        1.97800        0.12230
C          2.03560       -1.00900        0.03680
H          0.21370        0.51240        1.55840
H          1.42580        0.56760       -1.28250
H          2.20310        1.12260        0.19150
H         -1.46260        2.09690        0.55830
H         -0.55300        2.13140       -0.95940
H          0.16730        2.78220        0.51580
H          2.07770       -1.23850        1.10640
H          1.43620       -1.77700       -0.46100
H          3.05300       -1.08020       -0.36200
