37
117754
C         -1.25930        0.37930        0.14180
C          0.00340       -0.48340        0.05640
C         -2.55600       -0.42990        0.07580
C          1.33260        0.27750        0.03180
C         -3.78110        0.48720        0.07400
C          2.55900       -0.63770        0.00270
C         -5.07830       -0.31680       -0.02900
C          3.85670        0.17840       -0.02910
C         -6.29990        0.60120       -0.06370
C          5.11030       -0.69830       -0.02650
C         -7.59340       -0.19480       -0.13250
C          6.34700        0.09580       -0.04370
C          7.35890        0.74160       -0.05800
H         -1.23620        0.95860        1.07290
H         -1.24410        1.10410       -0.68170
H         -0.05530       -1.10540       -0.84600
H          0.00880       -1.17600        0.90780
H         -2.60490       -1.11580        0.93000
H         -2.55720       -1.04370       -0.83310
H          1.38610        0.92530        0.91550
H          1.34820        0.93670       -0.84480
H         -3.79160        1.08890        0.99090
H         -3.71590        1.18470       -0.77000
H          2.51270       -1.28880       -0.87840
H          2.55370       -1.28620        0.88680
H         -5.05890       -0.93440       -0.93530
H         -5.15410       -1.00000        0.82570
H          3.86090        0.81960       -0.92020
H          3.88280        0.85150        0.83780
H         -6.24010        1.26820       -0.93170
H         -6.31580        1.23400        0.83130
H          5.09350       -1.36270       -0.89860
H          5.10550       -1.34080        0.86200
H         -7.69940       -0.84750        0.74000
H         -8.45370        0.48140       -0.15740
H         -7.62380       -0.81660       -1.03290
H          8.25640        1.31470       -0.07060
