42
11794
C          0.00010       -1.00700       -0.06740
C         -1.20800       -0.31770        0.03990
C          1.20810       -0.31780        0.03990
C         -1.20810        1.06050        0.25440
C          1.20800        1.06060        0.25440
C         -0.00010        1.74960        0.36160
C          0.00010       -2.48540       -0.29770
C         -2.50510       -1.05440       -0.07470
C          2.50520       -1.05430       -0.07480
C         -2.48760        1.82210        0.37280
C          2.48730        1.82230        0.37300
C          0.00000       -2.83700       -1.78130
C         -3.00460       -1.55500        1.27620
C          3.00480       -1.55500        1.27590
C         -2.98290        2.33410       -0.97620
C          2.98280        2.33430       -0.97600
H         -0.00020        2.82510        0.52410
H          0.84960       -2.97560        0.18670
H         -0.84940       -2.97560        0.18680
H         -3.28220       -0.43530       -0.53350
H         -2.44090       -1.89580       -0.77070
H          2.44100       -1.89570       -0.77090
H          3.28230       -0.43510       -0.53360
H         -3.27440        1.24940        0.87170
H         -2.33090        2.68640        1.03260
H          2.33050        2.68660        1.03290
H          3.27410        1.24960        0.87200
H         -0.88080       -2.44090       -2.29620
H          0.00000       -3.92460       -1.90790
H          0.88080       -2.44100       -2.29630
H         -2.29480       -2.24230        1.74680
H         -3.95280       -2.08770        1.15040
H         -3.17400       -0.73290        1.97860
H          3.17430       -0.73290        1.97840
H          3.95300       -2.08760        1.15000
H          2.29500       -2.24230        1.74660
H         -2.25240        3.01190       -1.43140
H         -3.91910        2.88680       -0.84790
H         -3.16430        1.51970       -1.68420
H          3.16430        1.52000       -1.68400
H          3.91890        2.88720       -0.84760
H          2.25220        3.01210       -1.43140
