28
11931
C         -0.72250       -0.34400       -0.03770
C          0.72250       -0.34400        0.03780
C         -1.43560        0.82240        0.23930
C          1.43560        0.82240       -0.23930
C         -2.82870        0.82170        0.16760
C          2.82870        0.82160       -0.16770
C         -1.40240       -1.51100       -0.38640
C          1.40240       -1.51100        0.38650
C         -3.50850       -0.34550       -0.18110
C          3.50850       -0.34550        0.18110
C         -2.79530       -1.51180       -0.45810
C          2.79520       -1.51180        0.45800
C         -3.59220        2.06820        0.46410
C          3.59220        2.06810       -0.46410
H         -0.94060        1.74030        0.54670
H          0.94060        1.74030       -0.54660
H         -0.88890       -2.43430       -0.64040
H          0.88880       -2.43420        0.64040
H         -4.59350       -0.35990       -0.24020
H          4.59350       -0.35990        0.24020
H         -3.32490       -2.41840       -0.73600
H          3.32470       -2.41850        0.73590
H         -3.06400        2.94950        0.08450
H         -4.57840        2.05600       -0.01240
H         -3.72980        2.17640        1.54450
H          4.57870        2.05540        0.01150
H          3.72890        2.17700       -1.54450
H          3.06450        2.94940       -0.08360
