13
12023
N          1.36710        0.70170        0.00000
C         -0.73960       -0.00150        0.00010
C          0.06160        1.11900        0.00000
C          0.11430       -1.13200        0.00000
C         -2.21480       -0.01930        0.00000
C          1.41130       -0.66800       -0.00010
H         -0.17720        2.17350       -0.00020
H         -0.17870       -2.17280       -0.00030
H         -2.62030        0.83590        0.55070
H         -2.59620        0.02200       -1.02540
H         -2.59880       -0.93040        0.47040
H          2.17370        1.31080       -0.00010
H          2.35840       -1.18880       -0.00020
