19
12161
C         -1.79760       -0.09320        0.03090
C          0.97170        0.21520       -0.10640
C         -1.23580        1.18330        0.05580
C         -0.97460       -1.21570       -0.06240
C          0.14890        1.33750       -0.01300
C          0.41000       -1.06140       -0.13100
C         -3.27800       -0.25780        0.10510
C          2.41560        0.37600       -0.17700
C          3.33990       -0.48400        0.29790
H         -1.86650        2.06550        0.12710
H         -1.40090       -2.21510       -0.08730
H          0.56960        2.34000        0.00870
H          1.02160       -1.95590       -0.21740
H         -3.73650        0.54860        0.68750
H         -3.70750       -0.25160       -0.90160
H         -3.54700       -1.19950        0.59560
H          2.77110        1.29600       -0.63640
H          4.39530       -0.25110        0.19910
H          3.07760       -1.41060        0.79590
