7
12228
O         -1.62990        0.28440        0.00000
N          0.55620       -0.57840        0.00000
C          1.60860        0.43970        0.00000
C         -0.53500       -0.14560        0.00000
H          2.58480       -0.05590        0.00000
H          1.55640        1.07250        0.89380
H          1.55640        1.07250       -0.89390
