18
12352
N          3.57380        0.45880        0.02370
C         -1.26910       -0.42160       -0.01670
C          0.09440        0.27160       -0.03760
C         -2.41010        0.59540       -0.01380
C          1.23600       -0.74410       -0.00660
C         -3.76650       -0.08890        0.04070
C          2.54160       -0.07110        0.01020
H         -1.36230       -1.07790       -0.89050
H         -1.34330       -1.05710        0.87420
H          0.17700        0.89700       -0.93580
H          0.17620        0.94610        0.82460
H         -2.35580        1.21810       -0.91430
H         -2.31150        1.26400        0.84940
H          1.17320       -1.40100       -0.88170
H          1.14430       -1.38060        0.88120
H         -3.86520       -0.69310        0.94830
H         -3.91090       -0.74290       -0.82520
H         -4.56760        0.65680        0.04050
