19
12363
C         -1.72520        0.00260        0.00010
C         -0.91660        1.18730       -0.52060
C         -0.92040       -1.18500        0.52030
C          0.29940        1.55400        0.32800
C          0.29470       -1.55480       -0.32780
C          1.48510        0.64760        0.16560
C          1.48300       -0.65180       -0.16560
H         -2.38620        0.34570        0.80620
H         -2.38780       -0.33810       -0.80560
H         -1.58560        2.05560       -0.57480
H         -0.60150        0.98950       -1.55350
H         -1.59210       -2.05120        0.57390
H         -0.60500       -0.98860        1.55350
H          0.03260        1.62930        1.38830
H          0.62040        2.55680        0.01710
H          0.02780       -1.62950       -1.38810
H          0.61290       -2.55850       -0.01690
H          2.45460        1.12500        0.29730
H          2.45100       -1.13220       -0.29760
