20
12521
Cl         1.85070       -1.61810        0.21630
C          0.30530        0.64800        0.16210
C         -0.93270       -0.15190       -0.25880
C          1.61900        0.05770       -0.36720
C         -2.21340        0.48910        0.27790
C          2.81350        0.89910        0.06630
C         -3.44250       -0.32380       -0.09650
H          0.34140        0.70820        1.25770
H          0.20510        1.67760       -0.20460
H         -0.97900       -0.20820       -1.35310
H         -0.87460       -1.17910        0.11670
H          1.58850        0.00820       -1.46090
H         -2.15930        0.57290        1.36960
H         -2.31690        1.50480       -0.12120
H          3.74840        0.48840       -0.33020
H          2.71840        1.92430       -0.30710
H          2.89880        0.94590        1.15760
H         -4.34630        0.15410        0.29410
H         -3.54320       -0.40410       -1.18360
H         -3.38630       -1.33490        0.31930
