54
12532
N         11.15850       -0.80700        0.01880
C         -1.25890        0.42640       -0.13700
C          0.04990       -0.36940       -0.09980
C         -2.54640       -0.40190       -0.06100
C          1.29880        0.51490       -0.09850
C         -3.85630        0.39240       -0.02890
C          2.60820       -0.28130       -0.05110
C         -5.10770       -0.48800       -0.01110
C          3.89580        0.54920       -0.02340
C         -6.41220        0.31410       -0.07160
C          5.17070       -0.29750       -0.03870
C         -7.67070       -0.55290        0.01650
C          6.41970        0.57970        0.07700
C         -8.93590        0.30970        0.02380
C          7.72600       -0.21860        0.03270
C        -10.22490       -0.50690        0.13980
C          8.97680        0.65740        0.12600
C        -11.48710        0.34080        0.12080
C         10.19580       -0.16100        0.06570
H         -1.28200        1.02800       -1.05430
H         -1.25880        1.13800        0.69850
H          0.08240       -1.04480       -0.96330
H          0.05740       -1.00150        0.79660
H         -2.50220       -1.03510        0.83420
H         -2.56760       -1.08470       -0.91990
H          1.29650        1.14630       -0.99520
H          1.26220        1.19060        0.76470
H         -3.85930        1.04590        0.85190
H         -3.89170        1.04780       -0.90790
H          2.59320       -0.93060        0.83360
H          2.64070       -0.94800       -0.92230
H         -5.07710       -1.18090       -0.86090
H         -5.10020       -1.10130        0.89830
H          3.90240        1.22650       -0.88640
H          3.88700        1.18060        0.87360
H         -6.43510        0.89360       -1.00290
H         -6.41810        1.03950        0.75180
H          5.14870       -1.01180        0.79300
H          5.21180       -0.88110       -0.96610
H         -7.69990       -1.24730       -0.83150
H         -7.63610       -1.15780        0.93040
H          6.37860        1.14830        1.01430
H          6.42240        1.31310       -0.73900
H         -8.88770        1.01890        0.85950
H         -8.97060        0.90660       -0.89610
H          7.72800       -0.94820        0.85320
H          7.75770       -0.80090       -0.89770
H        -10.27230       -1.22800       -0.68510
H        -10.20290       -1.08890        1.06880
H          8.98210        1.38440       -0.69400
H          8.96130        1.22660        1.06240
H        -11.49300        1.05000        0.95440
H        -12.37400       -0.29480        0.20690
H        -11.56250        0.90740       -0.81270
