25
12564
C          0.42260        0.24530       -0.00090
C         -1.01350        0.06820       -0.00060
C          1.26290       -0.86800       -0.00150
C          2.64730       -0.69690       -0.00050
C          0.96660        1.52980        0.00070
C          3.19120        0.58770        0.00090
C         -1.70520       -0.01820        1.20780
C         -1.70650       -0.01540       -1.20830
C          2.35080        1.70090        0.00160
C          3.54660       -1.88670       -0.00080
C         -3.08950       -0.18870        1.20850
C         -3.09100       -0.18580       -1.20760
C         -3.78240       -0.27240        0.00080
H          0.84320       -1.87210       -0.00430
H          0.32600        2.40860        0.00140
H          4.26800        0.73460       -0.00020
H         -1.18050        0.04530        2.15820
H         -1.18300        0.05020       -2.15930
H          2.77450        2.70110        0.00250
H          3.73750       -2.21300       -1.02800
H          4.50520       -1.65990        0.47820
H          3.09970       -2.71780        0.55540
H         -3.62810       -0.25600        2.14920
H         -3.63080       -0.25090       -2.14780
H         -4.86030       -0.40510        0.00130
