8
12720
C         -0.72360       -0.50080        0.00010
C         -1.71490        0.39560        0.00000
C          0.64140       -0.10970       -0.00030
C          1.79710        0.21500        0.00010
H         -0.95610       -1.56060        0.00050
H         -2.74890        0.06720        0.00030
H         -1.52450        1.46390       -0.00040
H          2.82230        0.50320        0.00050
