24
13629
C          1.18610       -0.07210        0.29250
C         -1.04980        0.80690        0.03640
C         -1.54710       -0.49140       -0.07690
C          2.64730        0.15150        0.48950
C          0.31690        1.01660        0.22110
C          0.68860       -1.37040        0.17920
C         -0.67800       -1.58010       -0.00540
C         -1.96190        1.98750       -0.03510
C         -3.00650       -0.74060       -0.27440
C          3.40440        0.29200       -0.82670
H          2.80860        1.04980        1.09860
H          3.07630       -0.67630        1.06810
H          0.70930        2.02710        0.30830
H          1.35570       -2.22670        0.23130
H         -1.04850       -2.59800       -0.09220
H         -1.41420        2.93070        0.06910
H         -2.47710        2.01910       -1.00060
H         -2.70130        1.95300        0.77160
H         -3.58290       -0.34490        0.56810
H         -3.35460       -0.27780       -1.20360
H         -3.22960       -1.81110       -0.34380
H          3.30220       -0.60930       -1.44050
H          4.46970        0.45410       -0.63490
H          3.03050        1.14040       -1.40990
