20
136701
Cl        -0.04270       -0.71160        1.67920
C         -0.00070       -0.34990       -0.08890
C          1.47600       -0.19670       -0.53710
C         -0.80680        0.94100       -0.36990
C         -0.60250       -1.56110       -0.81880
C          2.25000        0.96130        0.08420
C         -2.27330        0.91700        0.05130
H          2.02140       -1.12460       -0.31890
H          1.50860       -0.07610       -1.62800
H         -0.34380        1.79110        0.14490
H         -0.76020        1.16750       -1.44270
H         -1.61420       -1.79250       -0.46910
H          0.00520       -2.46090       -0.66650
H         -0.65660       -1.37900       -1.89800
H          1.84470        1.92910       -0.22380
H          2.25430        0.91480        1.17650
H          3.29240        0.92770       -0.25050
H         -2.39150        0.75750        1.12650
H         -2.74020        1.87840       -0.18890
H         -2.83250        0.14260       -0.48100
