39
137210
C          3.06760       -0.24390       -0.34290
C          3.32500        1.11110        0.30880
C          4.30130       -1.04160        0.06730
C          4.81890        1.34340        0.10470
C          5.44570       -0.04190       -0.06280
C          1.76470       -0.88480        0.10250
C          0.55950       -0.02300       -0.27240
C         -0.75200       -0.68850        0.14790
C         -1.96050        0.15740       -0.25700
C         -3.27090       -0.49250        0.19330
C         -4.47610        0.37170       -0.18390
C         -5.81250       -0.21820        0.27190
C         -7.01080        0.65070       -0.07730
H          3.06540       -0.12510       -1.43520
H          2.73540        1.91730       -0.13840
H          3.09930        1.08060        1.38190
H          4.22170       -1.37870        1.10820
H          4.45520       -1.92480       -0.56060
H          1.67010       -1.87290       -0.36460
H          1.77220       -1.04860        1.18750
H          4.99380        1.94110       -0.79740
H          5.25510        1.88810        0.94820
H          6.22620       -0.22950        0.68130
H          5.90990       -0.12090       -1.05270
H          0.55300        0.14920       -1.35570
H          0.62500        0.95760        0.21220
H         -0.75430       -0.83870        1.23440
H         -0.82810       -1.67960       -0.31570
H         -1.96990        0.28960       -1.34580
H         -1.87440        1.15560        0.18930
H         -3.25430       -0.64040        1.27990
H         -3.37050       -1.48280       -0.26700
H         -4.35800        1.36880        0.25860
H         -4.49720        0.50930       -1.27220
H         -5.79100       -0.36890        1.35780
H         -5.94640       -1.20680       -0.18320
H         -6.92950        1.63510        0.39430
H         -7.93590        0.18080        0.27070
H         -7.08650        0.79350       -1.15990
