45
137211
C          4.26520       -0.19520        0.33770
C          5.50580       -1.03000        0.03570
C          4.57000        1.11330       -0.38450
C          6.65770       -0.03570        0.14390
C          6.05300        1.34540       -0.11470
C          2.97560       -0.84910       -0.12660
C          1.75660        0.00150        0.22920
C          0.45700       -0.67680       -0.21050
C         -0.76390        0.15860        0.18090
C         -2.09680       -0.50830       -0.17170
C         -3.31810        0.33870        0.19680
C         -4.61840       -0.37180       -0.18910
C         -5.87560        0.44310        0.12880
C         -7.17630       -0.29520       -0.18840
C         -8.39190        0.56130        0.13230
H          4.21750       -0.00980        1.41970
H          5.62260       -1.86940        0.72810
H          5.46430       -1.43750       -0.98200
H          4.40110        1.01560       -1.46390
H          3.96510        1.95010       -0.02200
H          7.09640       -0.06650        1.14790
H          7.45420       -0.27140       -0.56920
H          6.53720        1.85180       -0.95570
H          6.18520        1.97870        0.77010
H          2.88090       -1.83470        0.34610
H          3.00170       -1.02030       -1.21010
H          1.82300        0.98290       -0.25400
H          1.73240        0.17360        1.31220
H          0.46550       -0.82890       -1.29640
H          0.38440       -1.66720        0.25480
H         -0.74040        0.35250        1.26060
H         -0.70720        1.13470       -0.31690
H         -2.11530       -0.71900       -1.24820
H         -2.15920       -1.47610        0.34130
H         -3.26210        1.30610       -0.31620
H         -3.31450        0.54180        1.27420
H         -4.60460       -0.60000       -1.26210
H         -4.67200       -1.33260        0.33800
H         -5.84310        1.38320       -0.43570
H         -5.86660        0.71310        1.19230
H         -7.22580       -1.22520        0.38950
H         -7.19730       -0.57000       -1.24930
H         -9.31160        0.01580       -0.10110
H         -8.38670        1.48550       -0.45450
H         -8.41500        0.82780        1.19380
