57
137212
C          6.76280        0.15000       -0.29540
C          6.94060       -1.19850        0.39510
C          8.02320        0.89940        0.12500
C          8.42390       -1.50790        0.22120
C          9.12230       -0.15660        0.05930
C          5.48180        0.86210        0.10240
C          4.24700        0.05500       -0.30080
C          2.92750        0.73960        0.06970
C          1.69250       -0.05780       -0.35630
C          0.37330        0.58690        0.08210
C         -0.90190       -0.13310       -0.36750
C         -2.18620        0.54120        0.11870
C         -3.42540       -0.23720       -0.33120
C         -4.70800        0.41970        0.18320
C         -5.98230       -0.30650       -0.25700
C         -7.29860        0.29450        0.24690
C         -8.56890       -0.47080       -0.13570
C         -9.84220        0.12940        0.46090
C        -11.08150       -0.60960       -0.02040
H          6.78100        0.00400       -1.38420
H          6.69970       -1.12880        1.46300
H          6.32000       -1.98670       -0.04200
H          8.23660        1.75400       -0.52450
H          7.93180        1.27320        1.15240
H          8.81690       -2.07070        1.07390
H          8.58410       -2.11690       -0.67620
H          9.63330       -0.11670       -0.90950
H          9.87730        0.00700        0.83500
H          5.46280        1.03930        1.18510
H          5.44760        1.84690       -0.37940
H          4.26670       -0.12170       -1.38330
H          4.26530       -0.92830        0.18290
H          2.89190        1.73270       -0.39470
H          2.89930        0.89620        1.15520
H          1.74930       -1.06940        0.06390
H          1.69420       -0.16760       -1.44770
H          0.36800        0.66160        1.17700
H          0.34310        1.61640       -0.29740
H         -0.87260       -1.16590        0.00120
H         -0.91250       -0.18870       -1.46300
H         -2.17100        0.60830        1.21320
H         -2.23170        1.56620       -0.26820
H         -3.37010       -1.26810        0.03880
H         -3.45180       -0.28680       -1.42640
H         -4.68070        0.45860        1.27920
H         -4.75210        1.45760       -0.16910
H         -5.92460       -1.34880        0.08170
H         -6.01100       -0.33980       -1.35340
H         -7.24950        0.36350        1.34110
H         -7.37920        1.32420       -0.12360
H         -8.47330       -1.51270        0.19390
H         -8.65080       -0.49190       -1.22950
H         -9.79470        0.08830        1.55500
H         -9.92220        1.18550        0.17830
H        -11.04560       -1.66480        0.26840
H        -11.98080       -0.16730        0.41940
H        -11.17370       -0.55390       -1.10980
