22
138067
O          0.33630        0.00080       -0.91650
O          2.53370        0.00050       -0.42060
O          1.01660        0.00010        1.31490
C         -0.95790        0.00040       -0.49580
C          3.61230       -0.00040        0.52030
C         -1.62160        1.20810       -0.27960
C         -1.62060       -1.20800       -0.28010
C         -2.94790        1.20760        0.15240
C         -2.94700       -1.20840        0.15180
C         -3.61060       -0.00060        0.36800
C          4.92470       -0.00050       -0.23410
C          1.28210        0.00060        0.11940
H          3.54780        0.89350        1.15070
H          3.54710       -0.89500        1.14970
H         -1.11140        2.15300       -0.44610
H         -1.10980       -2.15250       -0.44700
H         -3.46460        2.14790        0.32070
H         -3.46320       -2.14920        0.31970
H         -4.64320       -0.00110        0.70420
H          5.77280       -0.00120        0.45630
H          4.99620       -0.87980       -0.88300
H          4.99690        0.87930       -0.88200
