32
138117
C          1.77270       -0.40810       -0.01530
C          0.35570       -0.38900       -0.65410
C          2.11280        0.89560        0.75680
C         -0.81160       -0.19290        0.32280
C          1.89540       -1.59100        0.96850
C          2.80000       -0.63480       -1.14520
C         -2.14750       -0.13510       -0.42560
C          2.04530        2.18280       -0.05610
C         -3.34860        0.09420        0.49460
C         -4.67420        0.17820       -0.24620
H          0.19700       -1.33430       -1.19150
H          0.31270        0.39570       -1.42030
H          1.44990        0.99970        1.62420
H          3.12720        0.81250        1.16970
H         -0.84460       -1.01370        1.04700
H         -0.68380        0.73770        0.88530
H          2.92420       -1.69500        1.33250
H          1.61710       -2.53630        0.48910
H          1.25440       -1.45740        1.84600
H          2.71590        0.12490       -1.92910
H          3.82570       -0.60890       -0.76030
H          2.65070       -1.61020       -1.62270
H         -2.29350       -1.07050       -0.97990
H         -2.11070        0.67110       -1.16890
H          2.30960        3.03490        0.57930
H          1.03890        2.36360       -0.44350
H          2.74680        2.17060       -0.89480
H         -3.20110        1.02260        1.05930
H         -3.40340       -0.71850        1.22860
H         -5.49480        0.34160        0.45930
H         -4.66940        1.00640       -0.96190
H         -4.87410       -0.74810       -0.79400
