33
138257
C          1.89300       -0.27250       -0.34270
C          2.20750        1.07700        0.29530
C          3.10680       -1.10870        0.05020
C          3.70430        1.25790        0.06220
C          4.28120       -0.14860       -0.10740
C          0.57790       -0.86670        0.13060
C         -0.60450        0.03280       -0.22870
C         -1.93060       -0.58530        0.22030
C         -3.11570        0.29900       -0.17450
C         -4.47020       -0.28600        0.23100
C         -5.64960        0.60120       -0.13640
H          1.87470       -0.16030       -1.43540
H          2.00080        1.06060        1.37250
H          1.63700        1.89980       -0.14630
H          3.21950       -2.00020       -0.57450
H          3.03520       -1.43660        1.09460
H          4.17400        1.79280        0.89390
H          3.88230        1.84380       -0.84690
H          4.72430       -0.24920       -1.10500
H          5.06870       -0.35760        0.62370
H          0.59960       -1.02360        1.21650
H          0.44180       -1.85400       -0.32790
H         -0.49750        1.01390        0.24760
H         -0.62450        0.19770       -1.31290
H         -1.92380       -0.72680        1.30780
H         -2.04840       -1.57610       -0.23470
H         -3.10590        0.45580       -1.26030
H         -2.99890        1.28670        0.28860
H         -4.60040       -1.26440       -0.24660
H         -4.48180       -0.45730        1.31400
H         -6.58890        0.13430        0.17570
H         -5.69250        0.76480       -1.21790
H         -5.57270        1.57580        0.35570
