32
13848
Cl         6.50610       -0.51300        0.02250
C         -0.02520        0.47130       -0.00220
C         -1.28930       -0.39060       -0.03290
C          1.26980       -0.34600       -0.01890
C         -2.55170        0.47640       -0.02690
C          2.53410        0.51630       -0.01380
C         -3.81590       -0.38610       -0.01980
C          3.79570       -0.35040       -0.00790
C         -5.10830        0.43230        0.01710
C          5.05160        0.51050        0.03250
C         -6.36700       -0.42080        0.05050
H         -0.03810        1.10200        0.89550
H         -0.03010        1.14910       -0.86500
H         -1.28100       -1.02330       -0.92850
H         -1.29520       -1.05920        0.83640
H          1.28130       -1.01190        0.85290
H          1.27580       -0.98880       -0.90800
H         -2.55730        1.12890       -0.90820
H         -2.54830        1.12540        0.85700
H          2.53730        1.16870       -0.89530
H          2.52870        1.16560        0.87000
H         -3.82220       -1.02720       -0.91010
H         -3.79240       -1.05370        0.85060
H          3.80640       -0.98460       -0.90300
H          3.77690       -1.01860        0.86200
H         -5.10040        1.08340        0.89930
H         -5.14740        1.08800       -0.86100
H          5.10530        1.17180       -0.83760
H          5.08200        1.12290        0.93860
H         -6.38040       -1.06170        0.93760
H         -6.42840       -1.05980       -0.83600
H         -7.25730        0.21520        0.07520
