36
138541
C          2.47290       -0.25610        0.33170
C          3.67820       -1.12170       -0.02220
C          2.81560        1.06940       -0.34070
C          4.86690       -0.17460        0.11000
C          4.30950        1.23680       -0.08320
C          1.15440       -0.84380       -0.14030
C         -0.02820        0.03450        0.26770
C         -1.35180       -0.54330       -0.23880
C         -2.53700        0.31750        0.20380
C         -3.89480       -0.25350       -0.21530
C         -5.08180        0.56760        0.29000
C         -6.40410       -0.03290       -0.16280
H          2.44570       -0.11410        1.42090
H          3.60870       -1.48490       -1.05500
H          3.77350       -1.99270        0.63350
H          2.24750        1.91210        0.06460
H          2.62910        1.02280       -1.42070
H          5.64500       -0.40890       -0.62350
H          5.31720       -0.26250        1.10550
H          4.47620        1.82790        0.82490
H          4.80080        1.75990       -0.90980
H          1.16220       -0.96840       -1.23040
H          1.02820       -1.84490        0.29040
H         -0.05820        0.12440        1.36050
H          0.08880        1.04580       -0.13750
H         -1.33500       -0.60980       -1.33320
H         -1.47760       -1.56260        0.14600
H         -2.42800        1.32760       -0.21000
H         -2.51850        0.41960        1.29610
H         -3.98300       -1.28020        0.16150
H         -3.93310       -0.31450       -1.31000
H         -5.00590        1.59610       -0.08120
H         -5.06160        0.61450        1.38480
H         -6.46720       -0.06430       -1.25520
H         -6.52300       -1.05230        0.21820
H         -7.23980        0.56830        0.20860
