63
138839
C         -7.97390       -0.12430       -0.34390
C         -8.18060        1.18070        0.41830
C         -9.23550       -0.90800        0.00460
C         -9.66280        1.48610        0.22900
C        -10.34360        0.14020       -0.02550
C         -6.69470       -0.84660        0.04140
C         -5.45800       -0.04240       -0.35960
C         -4.14130       -0.68500        0.08710
C         -2.86880        0.10360       -0.23810
C         -1.58270       -0.62630        0.15420
C         -0.34720        0.21910       -0.16320
C          0.94140       -0.52190        0.19800
C          2.17820        0.30970       -0.15020
C          3.46580       -0.44730        0.18260
C          4.73730        0.32760       -0.17470
C          6.02470       -0.43940        0.13540
C          7.26240        0.40820       -0.17240
C          8.54900       -0.34450        0.17310
C          9.82160        0.44980       -0.13660
C         11.14030       -0.24570        0.20930
C         12.36850        0.60650       -0.06860
H         -7.97120        0.08220       -1.42310
H         -7.96240        1.05230        1.48560
H         -7.55860        1.99830        0.04150
H         -9.42590       -1.72590       -0.69720
H         -9.16230       -1.33910        1.01070
H        -10.08020        1.99550        1.10350
H         -9.80950        2.14420       -0.63540
H        -10.83280        0.15140       -1.00640
H        -11.11380       -0.07430        0.72230
H         -6.66330       -1.82650       -0.45060
H         -6.67590       -1.03540        1.12200
H         -5.50310        0.96110        0.07810
H         -5.44300        0.08750       -1.44870
H         -4.17890       -0.85090        1.17140
H         -4.06710       -1.67820       -0.37410
H         -2.91130        1.07220        0.27510
H         -2.84820        0.31650       -1.31410
H         -1.60460       -0.85840        1.22580
H         -1.52670       -1.58080       -0.38290
H         -0.33910        0.46880       -1.23120
H         -0.39540        1.16500        0.38990
H          0.97810       -1.47630       -0.34140
H          0.94400       -0.75560        1.26950
H          2.16680        0.55750       -1.21850
H          2.15560        1.25660        0.40230
H          3.47080       -1.40440       -0.35370
H          3.47950       -0.68480        1.25360
H          4.71710        0.58040       -1.24210
H          4.73900        1.27710        0.37520
H          6.05180       -1.36480       -0.45230
H          6.03130       -0.72720        1.19360
H          7.22290        1.34320        0.39930
H          7.26860        0.67810       -1.23530
H          8.57780       -1.29010       -0.38230
H          8.54190       -0.60390        1.23890
H          9.82760        0.70290       -1.20450
H          9.77690        1.40310        0.40550
H         11.13480       -0.52190        1.27040
H         11.21630       -1.17890       -0.36110
H         12.34330        1.53050        0.51770
H         12.42610        0.87370       -1.12840
H         13.27890        0.05960        0.19560
