48
138830
C          4.88040       -0.19880        0.34340
C          6.11680       -1.06090        0.10810
C          5.21750        1.07140       -0.43080
C          7.27850       -0.07600        0.19660
C          6.69700        1.29860       -0.13860
C          3.59340       -0.85860       -0.11950
C          2.37850        0.02210        0.17450
C          1.04710       -0.63120       -0.21010
C         -0.17190        0.22100        0.15300
C         -1.50320       -0.42610       -0.24260
C         -2.72620        0.39040        0.18440
C         -4.02620       -0.31510       -0.21130
C         -5.28580        0.44480        0.21480
C         -6.58510       -0.24730       -0.20300
C         -7.80770        0.51510        0.31000
C         -9.10310       -0.14920       -0.12900
H          4.81190        0.03650        1.41450
H          6.20790       -1.86890        0.84060
H          6.09250       -1.51430       -0.89060
H          5.07120        0.92590       -1.50820
H          4.61510        1.93060       -0.12090
H          7.69450       -0.06560        1.21060
H          8.08750       -0.35350       -0.48670
H          7.20590        1.76010       -0.99080
H          6.81760        1.97050        0.71910
H          3.47540       -1.82040        0.39480
H          3.63610       -1.07810       -1.19350
H          2.35850        0.26430        1.24450
H          2.46440        0.97250       -0.36490
H          0.96510       -1.60340        0.29130
H          1.04270       -0.82940       -1.28900
H         -0.08920        1.19940       -0.33590
H         -0.16940        0.40580        1.23430
H         -1.56200       -1.42390        0.20980
H         -1.52270       -0.56990       -1.33000
H         -2.70660        0.54050        1.27040
H         -2.68790        1.38220       -0.28120
H         -4.04370       -0.45480       -1.29930
H         -4.04620       -1.31640        0.23670
H         -5.25990        1.45340       -0.21590
H         -5.27410        0.56620        1.30520
H         -6.62410       -0.32110       -1.29640
H         -6.59930       -1.27070        0.19120
H         -7.78220        0.56710        1.40460
H         -7.78830        1.54520       -0.06460
H         -9.96360        0.41150        0.24910
H         -9.16870       -1.17230        0.25490
H         -9.17470       -0.18610       -1.22070
