19
139482
O          0.76150        0.00080       -0.95610
O          2.97000        0.00030       -0.51240
O          1.49460       -0.00020        1.25850
C         -0.52230        0.00040       -0.50490
C         -1.18060        1.20810       -0.27280
C         -1.17980       -1.20800       -0.27360
C         -2.49630        1.20770        0.19040
C         -2.49560       -1.20830        0.18960
C         -3.15380       -0.00050        0.42150
C          1.73160        0.00040        0.05710
C          4.07070       -0.00080        0.40270
H         -0.67450        2.15300       -0.45130
H         -0.67320       -2.15240       -0.45260
H         -3.00880        2.14800        0.37110
H         -3.00770       -2.14910        0.36960
H         -4.17820       -0.00100        0.78210
H          4.04600       -0.90140        1.02360
H          4.04690        0.89900        1.02480
H          4.99640       -0.00080       -0.17900
