24
14095
C          1.95270       -0.01130        0.65630
C          0.48730       -0.00610        0.38040
C          2.78730       -0.01030       -0.63220
C         -0.19430        1.20430        0.25440
C         -0.20170       -1.21150        0.24790
C         -2.25410        0.00390       -0.13660
C          4.27970        0.01910       -0.34330
C         -1.56500        1.20940       -0.00400
C         -1.57250       -1.20660       -0.01060
C         -3.71950        0.00920       -0.41220
H          2.21570        0.86070        1.26920
H          2.21260       -0.88670        1.26570
H          2.55450       -0.90050       -1.22940
H          2.52620        0.85970       -1.24720
H          0.33170        2.15020        0.35320
H          0.31840       -2.16120        0.34160
H          4.55210        0.91800        0.21880
H          4.58260       -0.85640        0.23980
H          4.84760        0.01790       -1.27890
H         -2.08450        2.15900       -0.10210
H         -2.09780       -2.15240       -0.11400
H         -4.20660       -0.87050        0.02210
H         -4.20100        0.89020        0.02570
H         -3.89860        0.01200       -1.49200
