20
14111647
F         -2.07600       -0.73500        1.11270
F         -2.13790       -0.79270       -1.06640
F         -2.99650        0.90470        0.00830
C          0.52840       -0.26160       -0.00090
C          1.87440        0.46500       -0.01510
C         -0.63700        0.72640       -0.04620
C          3.04010       -0.52360       -0.00490
C         -1.97540        0.02180       -0.00230
C          4.37970        0.19500        0.01470
H          0.45660       -0.87840        0.90310
H          0.46740       -0.94010       -0.86040
H          1.94120        1.10040       -0.90660
H          1.94330        1.12530        0.85800
H         -0.57810        1.33070       -0.95860
H         -0.56920        1.41630        0.80290
H          2.98950       -1.16830       -0.89000
H          2.96950       -1.17390        0.87480
H          4.47540        0.82270        0.90650
H          5.19910       -0.53060        0.02070
H          4.49620        0.83180       -0.86810
