30
15077
S         -5.93870        0.45100       -0.14430
C          0.66030       -0.44970        0.07440
C         -0.63070        0.37190        0.10060
C          1.89300        0.45640        0.06370
C         -1.86610       -0.53150        0.07860
C          3.21540       -0.31470        0.00530
C         -3.15600        0.29520        0.05800
C          4.48330        0.54180       -0.02950
C         -4.42400       -0.54940       -0.06600
C          5.76350       -0.27100       -0.14060
H          0.69690       -1.10980        0.94930
H          0.67100       -1.09050       -0.81560
H         -0.65020        1.00040        0.99910
H         -0.65280        1.04450       -0.76560
H          1.88820        1.08810        0.96040
H          1.83930        1.13160       -0.79920
H         -1.86460       -1.18830        0.95660
H         -1.83320       -1.17560       -0.80850
H          3.26930       -0.98700        0.87100
H          3.20410       -0.95790       -0.88400
H         -3.20450        0.89850        0.97360
H         -3.10980        0.99800       -0.78410
H          4.52810        1.15700        0.87700
H          4.42860        1.23240       -0.87930
H         -4.50710       -1.22880        0.78850
H         -4.37920       -1.16150       -0.97280
H          5.76840       -0.86810       -1.05800
H          6.63440        0.39140       -0.15990
H          5.86960       -0.94980        0.71160
H         -5.80560        1.02650        1.05970
