60
15085
C          4.38460        0.15810       -0.13860
C          4.59450       -1.32830        0.15800
C          3.54590        0.35130       -1.40450
C          3.29500       -2.09660        0.41300
C          3.32820        1.82090       -1.77830
C          2.43130       -1.59000        1.57350
C          2.58210        2.67240       -0.74500
C          1.16020       -2.39410        1.86700
C          1.14780        2.20470       -0.48270
C          0.16380       -2.40360        0.70570
C          0.45280        3.10290        0.54410
C         -1.14110       -3.14180        1.03320
C         -0.99980        2.70330        0.82080
C         -2.17060       -3.19680       -0.10250
C         -1.67070        3.55800        1.89690
C         -2.60070       -1.84410       -0.61120
C         -3.11290        3.13460        2.12800
C         -3.69480       -1.19810       -0.03540
C         -1.90430       -1.23830       -1.65720
C         -4.09270        0.05340       -0.50580
C         -2.30220        0.01320       -2.12750
C         -3.39640        0.65900       -1.55160
H          3.92040        0.64860        0.72200
H          5.36420        0.63090       -0.27820
H          5.13060       -1.79860       -0.67540
H          5.24180       -1.42100        1.03850
H          2.56740       -0.12720       -1.30470
H          4.04800       -0.14470       -2.24470
H          2.70620       -2.13150       -0.50870
H          3.56490       -3.13980        0.62360
H          4.30510        2.28400       -1.96600
H          2.78210        1.86020       -2.72920
H          2.13560       -0.55190        1.38640
H          3.04430       -1.57710        2.48340
H          3.14400        2.70160        0.19510
H          2.55380        3.70530       -1.11500
H          1.43500       -3.42500        2.12070
H          0.67610       -1.96760        2.75410
H          1.14450        1.17550       -0.10940
H          0.58130        2.21150       -1.42140
H         -0.05340       -1.36330        0.44000
H          0.61710       -2.87680       -0.17220
H          0.47490        4.14220        0.19340
H          1.01680        3.07420        1.48480
H         -1.60260       -2.66350        1.90700
H         -0.90290       -4.17020        1.33190
H         -1.03080        1.64960        1.12530
H         -1.57170        2.78120       -0.11170
H         -3.05270       -3.75410        0.23820
H         -1.76050       -3.78160       -0.93620
H         -1.64720        4.61280        1.59970
H         -1.11410        3.47310        2.83720
H         -3.16790        2.09080        2.45370
H         -3.57150        3.75730        2.90240
H         -3.70390        3.24000        1.21260
H         -4.24340       -1.65850        0.78190
H         -1.05070       -1.73070       -2.11570
H         -4.94290        0.55770       -0.05590
H         -1.75890        0.48590       -2.94040
H         -3.70460        1.63460       -1.91590
