18
15413
O          0.75590        0.00000        0.83470
C         -0.38850        0.00000       -0.01950
C         -0.34460       -1.25450       -0.89090
C         -1.62830       -0.00830        0.87210
C         -0.35370        1.26240       -0.87970
C          1.95930        0.00040        0.08330
H         -0.11220       -2.14440       -0.29490
H         -1.31130       -1.41820       -1.38150
H          0.39630       -1.19350       -1.69510
H         -1.63780        0.86650        1.53240
H         -1.63160       -0.88880        1.52480
H         -2.55250       -0.00900        0.28510
H          0.38550        1.21290       -1.68610
H         -1.32240        1.42550       -1.36640
H         -0.12430        2.14800       -0.27620
H          2.09460        0.89990       -0.52110
H          2.10160       -0.90780       -0.50680
H          2.77800        0.00910        0.81170
