21
15620
S         -2.67980       -0.71710       -0.01390
C          1.31670        0.37120        0.01980
C          0.06650       -0.51240        0.01150
C          2.59290       -0.46990        0.00720
C         -1.20130        0.33690       -0.01200
C          3.83630        0.40480       -0.01890
C         -3.93140        0.58660        0.00630
H          1.30790        1.01420        0.90830
H          1.30470        1.03080       -0.85660
H          0.07470       -1.15520        0.90080
H          0.09440       -1.16870       -0.86760
H          2.62300       -1.11380        0.89380
H          2.59850       -1.12620       -0.87090
H         -1.21530        0.96660       -0.90780
H         -1.23150        0.98690        0.86880
H          3.85270        1.03700       -0.91240
H          3.87800        1.05330        0.86210
H          4.73700       -0.21690       -0.02610
H         -3.83140        1.19760        0.90720
H         -4.92550        0.13160        0.00440
H         -3.83760        1.21910       -0.88030
