24
16629
C         -1.24480        0.66540       -0.44270
C          1.17560        0.24630        0.29790
C          0.23380        1.04780       -0.61380
C         -1.43570       -0.85150       -0.57840
C          0.95840       -1.26130        0.11760
C         -0.50170       -1.65470        0.32400
C         -1.81860        1.19280        0.87520
C          2.63280        0.61500        0.02030
H         -1.81120        1.14830       -1.24990
H          0.96340        0.50560        1.34260
H          0.51640        0.87580       -1.66130
H          0.36380        2.12200       -0.43250
H         -1.24590       -1.13760       -1.62110
H         -2.47630       -1.12410       -0.36660
H          1.58560       -1.81660        0.82520
H          1.27300       -1.56510       -0.88920
H         -0.77740       -1.50730        1.37470
H         -0.62400       -2.72380        0.11540
H         -1.32140        0.76370        1.74980
H         -1.71390        2.28160        0.93150
H         -2.88600        0.95880        0.94990
H          2.79920        1.68560        0.17970
H          3.30560        0.06820        0.68940
H          2.91510        0.37810       -1.01120
