33
16722
N          6.66640        0.72630       -0.09420
C         -0.59560       -0.50660        0.08480
C         -1.85880        0.36020        0.11540
C          0.69970        0.30600        0.14820
C         -3.15090       -0.44940       -0.02180
C          1.92820       -0.60060        0.04210
C         -4.41470        0.41580        0.02090
C          3.22370        0.21300        0.06680
C         -5.70760       -0.39310       -0.09040
C          4.45030       -0.68830       -0.07200
C         -6.92860        0.51400       -0.11550
C          5.68800        0.10270       -0.08420
H         -0.62330       -1.21380        0.92300
H         -0.59940       -1.10530       -0.83470
H         -1.81070        1.09580       -0.69690
H         -1.88260        0.92620        1.05460
H          0.73360        0.87030        1.08780
H          0.71160        1.03690       -0.66930
H         -3.12880       -1.00790       -0.96560
H         -3.19690       -1.19150        0.78470
H          1.92820       -1.31940        0.87050
H          1.87750       -1.17890       -0.88850
H         -4.42740        0.98910        0.95620
H         -4.37190        1.14600       -0.79690
H          3.28420        0.78240        1.00320
H          3.21080        0.94790       -0.74860
H         -5.69000       -0.99690       -1.00500
H         -5.78560       -1.08590        0.75530
H          4.48100       -1.40480        0.75690
H          4.38210       -1.27020       -0.99850
H         -7.84240       -0.08330       -0.19290
H         -6.89430        1.19490       -0.97200
H         -6.99050        1.11330        0.79840
