12
16910
F          2.46080        0.00020       -0.00010
F          1.09350        2.36790       -0.00030
F          1.09380       -2.36790       -0.00020
F         -3.00760       -0.00020       -0.00020
C          1.12150        0.00010        0.00030
C          0.42380        1.20800        0.00020
C          0.42410       -1.20810        0.00010
C         -0.97100        1.20800        0.00020
C         -0.97080       -1.20810        0.00000
C         -1.66830        0.00000        0.00000
H         -1.51400        2.14830        0.00000
H         -1.51380       -2.14850       -0.00020
