41
176692
C          4.36710        0.01630       -0.00050
C          2.98880       -0.69880        0.03200
C          1.76100        0.22170        0.00910
C          0.43380       -0.54740       -0.02400
C         -0.79610        0.36220        0.02800
C         -2.12110       -0.40680       -0.01680
C          5.46630       -1.06400       -0.03690
C          4.57760        0.88040        1.25380
C          4.50700        0.89760       -1.25250
C         -3.39030        0.45050        0.00940
C         -4.68130       -0.37060        0.02580
C         -5.91290        0.53340       -0.03830
C         -7.19990       -0.27460        0.01090
H          2.93270       -1.33310        0.92660
H          2.92230       -1.37890       -0.82800
H          1.79570        0.87630       -0.86830
H          1.76950        0.86760        0.89410
H          0.40010       -1.24190        0.82450
H          0.39530       -1.15750       -0.93480
H         -0.76310        0.96510        0.94360
H         -0.76210        1.06350       -0.81470
H         -2.13760       -1.02760       -0.92170
H         -2.14940       -1.10020        0.83340
H          5.37050       -1.69650       -0.92670
H          5.41090       -1.71440        0.84330
H          6.46570       -0.61460       -0.05540
H          3.87140        1.71620        1.29300
H          5.58670        1.30800        1.27330
H          4.44970        0.28860        2.16700
H          3.82730        1.75530       -1.22620
H          4.29740        0.32610       -2.16350
H          5.52380        1.29810       -1.33920
H         -3.36490        1.10030        0.89280
H         -3.38730        1.10950       -0.86770
H         -4.68850       -1.06030       -0.82680
H         -4.71390       -0.98120        0.93610
H         -5.90070        1.23940        0.80030
H         -5.89370        1.12480       -0.96110
H         -7.26550       -0.85190        0.93860
H         -7.25850       -0.97040       -0.83210
H         -8.06740        0.39110       -0.03700
