35
176691
C         -3.16330       -0.01470       -0.01320
C         -1.76660       -0.69010        0.04040
C         -0.56350        0.26230        0.01070
C          0.75410       -0.52020        0.00380
C          1.99580        0.37650        0.00110
C         -3.31710        0.86840        1.24080
C         -3.30310        0.87730       -1.25770
C         -4.28920       -1.06210       -0.01160
C          3.31150       -0.40430       -0.03120
C          4.51500        0.53680        0.04070
C          5.82650       -0.22980       -0.02380
H         -1.70250       -1.31440        0.94170
H         -1.68400       -1.37960       -0.81070
H         -0.59460        0.89500       -0.88210
H         -0.57550        0.92170        0.88460
H          0.79050       -1.17590        0.88270
H          0.78250       -1.17170       -0.87870
H          1.95320        1.04690       -0.86620
H          1.97420        1.01340        0.89430
H         -2.62270        1.71470        1.24030
H         -4.32790        1.28930        1.29860
H         -3.14940        0.29100        2.15690
H         -4.31860        1.28300       -1.33670
H         -2.62100        1.73300       -1.23380
H         -3.10220        0.30800       -2.17190
H         -5.27760       -0.58900       -0.02110
H         -4.22020       -1.71060       -0.89210
H         -4.23230       -1.70010        0.87740
H          3.34330       -1.10540        0.81160
H          3.35930       -1.00060       -0.95030
H          4.47740        1.25310       -0.78820
H          4.48080        1.11500        0.97140
H          5.90650       -0.79250       -0.95940
H          5.91010       -0.93460        0.80960
H          6.67290        0.46190        0.03000
