7
177
O          1.14430        0.24120        0.00000
C         -1.25740        0.18150        0.00000
C          0.11300       -0.42260        0.00000
H         -1.79380       -0.14930        0.89240
H         -1.18650        1.27190        0.00160
H         -1.79280       -0.14680       -0.89380
H          0.14780       -1.52520       -0.00070
