8
17822
Cl         1.90850       -1.04690        0.03570
F         -1.07740       -1.24150       -0.52320
F         -0.69060       -0.15870        1.33490
F         -1.46950        0.89800       -0.40720
F          1.17330        1.40750        0.04950
C         -0.62260       -0.07780       -0.01050
C          0.77830        0.21940       -0.47920
H          0.82310        0.29950       -1.56860
