51
18015
S          9.27690        1.51450       -0.56750
C          0.03960       -0.48170       -0.10560
C         -1.23750        0.27810        0.26430
C          1.32250        0.27670        0.24570
C         -2.51920       -0.44640       -0.15320
C          2.56400       -0.54490       -0.11250
C         -3.75940        0.38820        0.17520
C          3.88240        0.16800        0.20660
C         -5.04420       -0.34810       -0.21170
C          5.11930       -0.68550       -0.08400
C         -6.28370        0.47360        0.14900
C          6.43890        0.02820        0.23040
C         -7.59910       -0.20410       -0.24510
C          7.71870       -0.75720       -0.08410
C         -8.83960        0.58180        0.18100
C          9.03740       -0.07460        0.27980
C        -10.11710       -0.16660       -0.16830
H          0.03700       -1.45150        0.40720
H          0.03190       -0.69320       -1.18220
H         -1.25280        0.45040        1.34760
H         -1.21210        1.26590       -0.21260
H          1.34460        1.23180       -0.29220
H          1.33180        0.50720        1.31760
H         -2.49100       -0.65210       -1.23000
H         -2.57430       -1.41380        0.36010
H          2.53270       -1.49710        0.43160
H          2.54180       -0.79070       -1.18150
H         -3.77510        0.61300        1.24860
H         -3.71010        1.34670       -0.35560
H          3.93720        1.09700       -0.37410
H          3.88790        0.45560        1.26530
H         -5.08580       -1.31580        0.30250
H         -5.04060       -0.55350       -1.28890
H          5.11470       -0.97660       -1.14150
H          5.06680       -1.61250        0.49980
H         -6.28700        0.66140        1.23000
H         -6.22730        1.45310       -0.34190
H          6.44580        0.97290       -0.32550
H          6.44650        0.29540        1.29480
H         -7.61680       -0.35160       -1.33210
H         -7.63300       -1.20220        0.20950
H          7.67570       -1.71410        0.45160
H          7.72550       -1.00970       -1.15250
H         -8.81290        0.76060        1.26220
H         -8.84470        1.56130       -0.31060
H          9.87530       -0.72990        0.02130
H          9.07890        0.10520        1.35900
H        -10.18820       -0.33870       -1.24700
H        -10.15520       -1.13630        0.33820
H        -10.99220        0.41290        0.14180
H         10.47190        1.79570       -0.02770
