30
19895062
O         -2.27400       -1.03960       -0.45440
C         -1.50140        1.09660        0.41840
C         -0.13870        1.08380       -0.30420
C          0.94630        0.31430        0.45500
C          2.26890        0.31650       -0.31560
C         -2.03630       -0.30550        0.73830
C         -2.51580        1.86990       -0.43220
C          3.34480       -0.47810        0.42430
C          4.65040       -0.50640       -0.35410
C         -2.74420       -2.35160       -0.17550
H         -1.37800        1.63130        1.36900
H          0.19550        2.11820       -0.45580
H         -0.25700        0.64450       -1.30310
H          0.64390       -0.72740        0.60250
H          1.09030        0.75950        1.44660
H          2.11380       -0.11650       -1.31140
H          2.60840        1.34920       -0.46140
H         -1.34790       -0.85250        1.39090
H         -2.98370       -0.20770        1.28390
H         -2.65830        1.40820       -1.41490
H         -3.48930        1.91320        0.06780
H         -2.17900        2.90000       -0.59180
H          3.52200       -0.03490        1.41110
H          3.00310       -1.50690        0.58730
H          4.51330       -0.97550       -1.33360
H          5.03680        0.50610       -0.50870
H          5.40590       -1.07840        0.19370
H         -2.91610       -2.86440       -1.12560
H         -3.68850       -2.31200        0.37600
H         -1.99740       -2.91340        0.39390
