18
20063
S          0.71330       -0.72780        0.00040
C         -2.02710       -0.50590       -0.00090
C         -0.75680        0.33710       -0.00140
C          1.97510        0.56630       -0.00050
C         -3.26860        0.37410        0.00160
C          3.36400       -0.04370        0.00080
H         -2.05640       -1.15340       -0.88580
H         -2.05460       -1.15520        0.88260
H         -0.73090        0.97600       -0.89040
H         -0.73140        0.97760        0.88650
H          1.85110        1.19270       -0.88950
H          1.85030        1.19470        0.88690
H         -3.29650        1.01560       -0.88500
H         -4.17150       -0.24470        0.00170
H         -3.29470        1.01320        0.88990
H          3.53230       -0.65970        0.89090
H          3.53310       -0.66160       -0.88760
H          4.11930        0.74930        0.00030
