33
20284
C          0.96670       -0.34950       -0.26670
C          1.27910        1.04590        0.29100
C          2.05760       -1.35310        0.13000
C         -0.40410       -0.82630        0.20980
C          2.66790        1.52240       -0.12820
C          3.44520       -0.87250       -0.28880
C          3.74850        0.51820        0.26000
C         -1.51300        0.10030       -0.28040
C         -2.88650       -0.39830        0.17180
C         -3.99900        0.54370       -0.28740
C         -5.36260        0.06920        0.18880
H          0.95160       -0.28610       -1.36370
H          1.21300        1.03790        1.38630
H          0.56370        1.79030       -0.07090
H          1.85800       -2.32640       -0.33410
H          2.04340       -1.51010        1.21620
H         -0.42570       -0.88550        1.30530
H         -0.58870       -1.84040       -0.16650
H          2.88160        2.49110        0.33760
H          2.68810        1.67870       -1.21390
H          3.51000       -0.85520       -1.38370
H          4.20260       -1.58130        0.06460
H          4.72040        0.85870       -0.11440
H          3.82590        0.47000        1.35320
H         -1.38410        1.11120        0.11780
H         -1.48750        0.17060       -1.37440
H         -3.06530       -1.40270       -0.23110
H         -2.90520       -0.48100        1.26560
H         -3.81690        1.55330        0.09910
H         -4.00190        0.61080       -1.38150
H         -5.59080       -0.92640       -0.20490
H         -6.14340        0.75640       -0.15200
H         -5.40290        0.02440        1.28180
