18
22386
O          1.28260        1.30670        0.22100
C         -0.29060       -0.53650        0.15190
C          1.05620        0.01230       -0.33020
C         -1.46210        0.34840       -0.28290
C          2.20760       -0.89880        0.07340
C         -2.79370       -0.23220        0.16680
H         -0.29080       -0.60210        1.24740
H         -0.43340       -1.55160       -0.23810
H          1.04680        0.11750       -1.42060
H         -1.46530        0.45000       -1.37430
H         -1.35320        1.35480        0.13710
H          2.27170       -0.99330        1.16310
H          2.09460       -1.89760       -0.35890
H          3.16180       -0.47850       -0.26230
H         -3.61670        0.41410       -0.15420
H         -2.83550       -0.31920        1.25720
H         -2.95430       -1.22560       -0.26400
H          1.28220        1.22300        1.18990
