51
23217
C         -1.22540       -0.42230        0.25050
C          0.03450        0.44690        0.24960
C         -2.52200        0.39140        0.18290
C          1.33130       -0.37020        0.23790
C         -3.81490       -0.42650        0.09160
C          2.58970        0.49880        0.15920
C         -5.11490        0.38500        0.09100
C          3.88470       -0.31660        0.08670
C         -6.36820       -0.48170       -0.05290
C          5.13820        0.54770       -0.06730
C         -7.66770        0.32960       -0.04620
C          6.39370       -0.31720       -0.20670
C         -8.91610       -0.52560       -0.26800
C          7.65140        0.54570       -0.32840
C        -10.17960        0.32090       -0.24200
C          8.87860       -0.30060       -0.49670
C          9.90680       -0.30530        0.35880
H         -1.23720       -1.04700        1.15180
H         -1.19130       -1.10470       -0.60760
H          0.02560        1.10080        1.13020
H          0.01730        1.10070       -0.63120
H         -2.47600        1.06140       -0.68500
H         -2.57620        1.03690        1.06860
H          1.37540       -0.99280        1.13970
H          1.31520       -1.05420       -0.61960
H         -3.84280       -1.13120        0.93230
H         -3.77650       -1.03530       -0.82060
H          2.62800        1.16200        1.03190
H          2.52380        1.14340       -0.72610
H         -5.08230        1.11090       -0.73060
H         -5.17700        0.96210        1.02170
H          3.97410       -0.93110        0.99100
H          3.82050       -1.00950       -0.76170
H         -6.39820       -1.21520        0.76210
H         -6.30420       -1.05020       -0.98900
H          5.03580        1.18950       -0.95060
H          5.23500        1.20730        0.80330
H         -7.61490        1.09680       -0.82880
H         -7.75330        0.85930        0.91080
H          6.48230       -0.97810        0.66500
H          6.29680       -0.96210       -1.08940
H         -8.98070       -1.29570        0.50930
H         -8.84600       -1.04190       -1.23230
H          7.56480        1.20650       -1.19920
H          7.74230        1.19150        0.55350
H        -10.15820        1.08200       -1.02850
H        -10.29390        0.82580        0.72250
H        -11.06040       -0.30860       -0.40230
H          8.93040       -0.93670       -1.37660
H         10.76940       -0.93690        0.17720
H          9.90760        0.31430        1.24870
