32
23531
C         -1.50910        0.67870       -0.36000
C         -2.03400       -0.77390       -0.16380
C         -0.08740        0.91290        0.20510
C          0.99590       -0.01500       -0.35520
C         -2.48160        1.72260        0.20850
C          2.37560        0.35390        0.19690
C         -2.16610       -1.14670        1.31790
C         -3.39340       -0.98790       -0.84370
C          3.46650       -0.54280       -0.38830
C          4.83360       -0.20180        0.18270
H         -1.45170        0.85590       -1.44330
H         -1.33090       -1.47000       -0.63530
H         -0.10210        0.83700        1.29900
H          0.19990        1.94940       -0.01800
H          0.77830       -1.05510       -0.09010
H          1.00400        0.05140       -1.44960
H         -2.58670        1.63780        1.29410
H         -3.47340        1.65150       -0.24580
H         -2.11210        2.73300       -0.00140
H          2.59960        1.40160       -0.03810
H          2.36890        0.26200        1.28980
H         -1.20980       -1.06340        1.84200
H         -2.49300       -2.18830        1.41610
H         -2.90200       -0.52700        1.83890
H         -3.65590       -2.05180       -0.83800
H         -4.20190       -0.45270       -0.33620
H         -3.36290       -0.66130       -1.88820
H          3.24030       -1.59370       -0.17300
H          3.49330       -0.43340       -1.47880
H          4.84920       -0.33430        1.26920
H          5.59850       -0.85420       -0.25000
H          5.10480        0.83480       -0.04140
