29
28024
C         -0.77610       -0.49220       -0.00350
C          0.71270       -0.79570       -0.35310
C          1.83920        0.04860        0.28800
C         -1.19510        0.96830       -0.31430
C         -1.07380       -0.78120        1.48340
C         -1.65160       -1.47600       -0.81860
C          1.56900        1.53370        0.00590
C          3.24220       -0.30100       -0.20170
C         -2.66660        1.29540       -0.08600
H          0.91950       -1.84840       -0.11400
H          0.82290       -0.72020       -1.44480
H          1.82030       -0.10760        1.37350
H         -0.94690        1.22110       -1.35110
H         -0.71880        1.67170        0.35690
H         -2.14460       -0.76890        1.71010
H         -0.70110       -1.77270        1.76660
H         -0.58230       -0.04970        2.13410
H         -1.58270       -1.26250       -1.89120
H         -2.70760       -1.43110       -0.53310
H         -1.32590       -2.51160       -0.66480
H          2.52190        2.08180        0.00270
H          1.02910        2.00650        0.82830
H          1.13710        1.72880       -0.97760
H          3.45710       -1.35950       -0.02130
H          3.34510       -0.11530       -1.27620
H          4.00290        0.28720        0.32240
H         -3.32010        0.71270       -0.74080
H         -2.97370        1.13630        0.95110
H         -2.84700        2.35200       -0.31530
