29
28025
C          0.80900        0.39120        0.16010
C         -0.65470        0.18670       -0.40330
C          1.49960       -0.95900        0.53460
C         -1.55530       -0.65010        0.54370
C          1.69150        1.10780       -0.89050
C          0.80730        1.26490        1.43560
C         -1.35360        1.51080       -0.75940
C          1.70940       -1.93900       -0.61410
C         -2.95330       -0.91340       -0.00660
H         -0.56690       -0.37350       -1.34400
H          2.48950       -0.74410        0.96090
H          0.94970       -1.46170        1.33820
H         -1.65580       -0.15650        1.51620
H         -1.09760       -1.62760        0.72370
H          1.41850        2.16240       -1.00120
H          1.60580        0.63870       -1.87630
H          2.74840        1.08750       -0.59970
H          0.24390        0.79660        2.24850
H          1.82880        1.42350        1.80180
H          0.37880        2.25520        1.25220
H         -1.63140        2.07480        0.13640
H         -2.26770        1.32920       -1.33420
H         -0.72850        2.14960       -1.38830
H          2.19790       -2.84550       -0.24120
H          0.76040       -2.24000       -1.06590
H          2.35120       -1.52020       -1.39410
H         -3.47690       -1.63010        0.63470
H         -2.90710       -1.33440       -1.01580
H         -3.55640       -0.00120       -0.03230
