29
28022
C         -1.45690        0.23520       -0.01230
C          0.01670        0.43260       -0.47060
C          1.08320       -0.43210        0.24890
C          2.51290       -0.08890       -0.22000
C         -2.11130       -0.80850       -0.94090
C         -1.51460       -0.30290        1.42870
C         -2.26700        1.53690       -0.10220
C          0.82580       -1.92330       -0.00950
C          2.91130        1.35110        0.07790
H          0.10240        0.30890       -1.55820
H          0.26590        1.48320       -0.27730
H          1.05420       -0.25370        1.32960
H          3.22650       -0.75130        0.28570
H          2.61500       -0.27530       -1.29600
H         -1.62960       -1.78660       -0.91140
H         -3.16120       -0.96540       -0.66490
H         -2.10030       -0.46730       -1.98270
H         -1.19530       -1.33060        1.57640
H         -0.95360        0.34350        2.11320
H         -2.55390       -0.28320        1.78360
H         -2.24170        1.94470       -1.11880
H         -1.86120        2.29850        0.57300
H         -3.31690        1.37750        0.16800
H          0.78080       -2.12650       -1.08590
H          1.65940       -2.51570        0.38770
H         -0.06440       -2.34410        0.44710
H          2.73400        1.60210        1.12830
H          3.97790        1.49120       -0.12700
H          2.36620        2.06120       -0.55030
