24
294861
S         -0.66740        0.88180       -0.01050
C          2.07820        0.36350       -0.04560
C          0.70530       -0.30840       -0.03380
C          3.24700       -0.62510       -0.01850
C         -2.03610       -0.29820       -0.00200
C         -3.37300        0.43440        0.01810
C          4.58170        0.09930        0.07100
C         -4.53570       -0.54740        0.02130
H          2.16920        0.99630       -0.93790
H          2.16000        1.02770        0.82480
H          0.60350       -0.94190       -0.92150
H          0.62130       -0.94870        0.85090
H          3.14510       -1.29640        0.84200
H          3.22710       -1.24680       -0.92080
H         -1.94860       -0.94010        0.88090
H         -1.96890       -0.92860       -0.89500
H         -3.44730        1.07030        0.90880
H         -3.46570        1.08560       -0.85950
H          5.40400       -0.62280        0.08510
H          4.64230        0.70050        0.98380
H          4.72630        0.76230       -0.78800
H         -4.49950       -1.19570        0.90270
H         -5.48750       -0.00730        0.03600
H         -4.51790       -1.17980       -0.87210
