8
3013878
Cl         1.88330       -0.80630       -0.00850
F          0.29390        0.88360        1.08600
F          0.27080        0.86720       -1.09430
F         -1.97050       -0.13950       -0.00490
C          0.34810        0.07190        0.00110
C         -0.82570       -0.87700        0.02070
H         -0.83890       -1.52750       -0.85840
H         -0.84610       -1.48270        0.93090
