28
31289
O         -4.70170       -1.12770        0.04190
C          0.48970       -0.27230       -0.04410
C          1.80870        0.50230        0.00100
C         -0.71140        0.67630       -0.00080
C          3.04550       -0.40050       -0.00810
C         -2.03210       -0.09990       -0.01320
C          4.36280        0.37280        0.06240
C         -3.24920        0.82080       -0.00510
C          5.55970       -0.56220       -0.02270
C         -4.57200        0.09040       -0.01120
H          0.45090       -0.87820       -0.95720
H          0.44350       -0.96360        0.80590
H          1.85690        1.18540       -0.85620
H          1.83060        1.12550        0.90380
H         -0.66160        1.29640        0.90230
H         -0.67540        1.35400       -0.86230
H          2.99010       -1.09590        0.83870
H          3.03140       -1.01110       -0.91960
H         -2.07140       -0.74440       -0.90050
H         -2.07300       -0.76670        0.85720
H          4.41300        1.09590       -0.75980
H          4.41000        0.94090        0.99850
H         -3.23470        1.46090        0.88380
H         -3.23340        1.46960       -0.88790
H          5.55740       -1.11840       -0.96550
H          6.49140        0.00950        0.03200
H          5.55400       -1.28230        0.80170
H         -5.46090        0.74330       -0.05530
