20
33016
Cl        -0.73980       -1.73430        0.22270
C         -0.55610       -0.02720       -0.29260
C          0.79430        0.53310        0.18280
C         -1.71570        0.82140        0.25040
C          1.99820       -0.27560       -0.31110
C         -3.09030        0.31570       -0.16890
C          3.30940        0.36680        0.11670
H         -0.58570       -0.03060       -1.38790
H          0.81490        0.57260        1.27970
H          0.89010        1.56830       -0.16920
H         -1.60030        1.85130       -0.10950
H         -1.67430        0.86520        1.34590
H          1.97620       -1.29600        0.08460
H          1.97320       -0.34750       -1.40450
H         -3.15180        0.20030       -1.25560
H         -3.85900        1.03310        0.13720
H         -3.33620       -0.64210        0.29840
H          4.15680       -0.22340       -0.24620
H          3.37910        0.42690        1.20750
H          3.40190        1.37870       -0.29040
