11
33643
I          2.35780       -0.18530       -0.00560
C         -0.66060       -0.49760        0.00800
C          0.37810        0.62180        0.00550
C         -2.07530        0.06110       -0.00790
H         -0.52500       -1.14470       -0.86700
H         -0.53640       -1.12910        0.89590
H          0.24860        1.25650        0.88930
H          0.24230        1.25870       -0.87570
H         -2.80490       -0.75470       -0.00500
H         -2.26030        0.68540        0.87200
H         -2.24750        0.66760       -0.90290
