16
342
O          2.36790       -1.09910        0.00030
C         -1.20400       -0.30770       -0.00010
C         -0.01810       -1.04220       -0.00020
C         -1.16070        1.08650        0.00000
C          1.21080       -0.38260       -0.00020
C         -2.51810       -1.01260        0.00020
C          0.06820        1.74620        0.00010
C          1.25400        1.01160       -0.00010
H         -0.04530       -2.12920        0.00160
H         -2.07760        1.67000        0.00200
H         -2.45340       -1.96850       -0.53070
H         -2.84190       -1.20320        1.02820
H         -3.28660       -0.41760       -0.50490
H          0.10190        2.83170        0.00080
H          2.20500        1.53750        0.00010
H          3.12030       -0.48260        0.00040
