36
36570
C         -1.20790       -0.64080       -0.27570
C         -1.20790        0.64070        0.27540
C          1.20800       -0.64070       -0.27570
C          1.20800        0.64060        0.27530
C          0.00010       -1.28150       -0.55110
C          0.00000        1.28130        0.55100
C         -2.48870       -1.34650       -0.57870
C         -2.48840        1.34640        0.57880
C          2.48860       -1.34670       -0.57840
C          2.48860        1.34660        0.57850
C         -2.98490       -2.17720        0.60100
C         -2.98470        2.17750       -0.60070
C          2.98470       -2.17730        0.60140
C          2.98450        2.17750       -0.60100
H          0.00010       -2.28260       -0.97630
H          0.00000        2.28240        0.97630
H         -3.27330       -0.65990       -0.90990
H         -2.33800       -2.01640       -1.43600
H         -3.27310        0.65990        0.90980
H         -2.33760        2.01590        1.43620
H          3.27320       -0.66020       -0.90970
H          2.33790       -2.01660       -1.43570
H          3.27330        0.66010        0.90950
H          2.33770        2.01620        1.43590
H         -2.25520       -2.94740        0.87410
H         -3.92190       -2.67920        0.33980
H         -3.16540       -1.56220        1.48800
H         -2.25500        2.94770       -0.87370
H         -3.92160        2.67970       -0.33930
H         -3.16540        1.56280       -1.48780
H          2.25510       -2.94740        0.87460
H          3.92180       -2.67930        0.34030
H          3.16530       -1.56230        1.48830
H          2.25480        2.94760       -0.87410
H          3.92140        2.67980       -0.33980
H          3.16530        1.56270       -1.48810
