21
519310
S         -3.01710       -0.94170       -0.04830
C         -0.29830       -0.57920       -0.12280
C          0.97260        0.20890        0.21500
C         -1.57970        0.11250        0.36700
C          2.22480       -0.52780       -0.26360
C         -1.79300        1.49430       -0.24390
C          3.49080        0.23320        0.09660
H         -0.34240       -0.72700       -1.21010
H         -0.22110       -1.57540        0.33250
H          0.94670        1.19560       -0.25990
H          1.02740        0.36820        1.29860
H         -1.55090        0.20550        1.45830
H          2.26600       -1.52540        0.18890
H          2.18340       -0.66560       -1.35030
H         -1.02250        2.19580        0.09110
H         -2.75560        1.92130        0.06050
H         -1.76300        1.46270       -1.33890
H          3.49720        1.22530       -0.36610
H          3.57820        0.35860        1.18060
H          4.37300       -0.31110       -0.25450
H         -2.66060       -1.99310        0.70410
