32
519303
C         -0.00380       -0.52120       -0.45150
C          1.38140        0.15120       -0.03150
C         -1.38900        0.16830       -0.05520
C         -0.00670       -2.02400       -0.06650
C          1.55790        1.59200       -0.54020
C          1.62120        0.15090        1.49380
C          2.54650       -0.65720       -0.67200
C         -2.48370       -0.08150       -1.11960
C         -1.95060       -0.45930        1.25180
C         -1.27320        1.68090        0.19090
H          0.00890       -0.50090       -1.55230
H         -0.93660       -2.50620       -0.38640
H          0.10970       -2.18790        1.00790
H          0.78470       -2.57530       -0.58160
H          1.14250        1.71220       -1.54640
H          2.62010        1.86040       -0.61080
H          1.13740        2.34980        0.12260
H          1.65360       -0.86370        1.90250
H          2.58170        0.62140        1.73660
H          0.84880        0.70260        2.03400
H          2.40280       -0.76960       -1.75240
H          2.65440       -1.65270       -0.23010
H          3.51150       -0.15890       -0.51840
H         -3.44480        0.35200       -0.81980
H         -2.19990        0.37290       -2.07550
H         -2.64050       -1.15090       -1.29470
H         -1.21960       -0.41460        2.06500
H         -2.26160       -1.50120        1.12430
H         -2.84020        0.08490        1.59330
H         -0.66060        1.92660        1.05950
H         -0.93200        2.21190       -0.70140
H         -2.26360        2.10080        0.41350
