38
520357
C         -1.52250        1.01090       -0.27240
C         -2.88720        0.57550        0.31110
C         -0.35410        0.22370        0.35630
C         -3.25760       -0.91350        0.15360
C          1.01640        0.57200       -0.23550
C          2.12630       -0.26610        0.40650
C         -1.36330        2.52420       -0.07400
C          3.49050        0.05880       -0.20640
C         -3.24490       -1.29210       -1.33090
C         -4.62220       -1.24510        0.75780
C          4.63230       -0.77460        0.37890
C          5.98620       -0.47360       -0.24500
H         -1.52500        0.83170       -1.35410
H         -2.90750        0.82250        1.38130
H         -3.67730        1.18160       -0.15290
H         -0.33760        0.39690        1.43980
H         -0.51210       -0.85030        0.21040
H         -2.52080       -1.53200        0.67790
H          1.24320        1.63110       -0.07390
H          1.00110        0.40100       -1.31850
H          2.15480       -0.07850        1.48650
H          1.90980       -1.33230        0.26810
H         -0.49260        2.90950       -0.61270
H         -1.25060        2.77560        0.98610
H         -2.23760        3.06150       -0.45780
H          3.71060        1.12330       -0.05800
H          3.44800       -0.10700       -1.29020
H         -3.89600       -0.63480       -1.91720
H         -2.23630       -1.24520       -1.75180
H         -3.59660       -2.32070       -1.46910
H         -4.64210       -0.99640        1.82400
H         -5.42180       -0.68250        0.26420
H         -4.84590       -2.31250        0.65830
H          4.69280       -0.59840        1.45950
H          4.41070       -1.83990        0.24290
H          6.25910        0.57590       -0.09660
H          5.97380       -0.67670       -1.32050
H          6.76230       -1.09600        0.21110
