20
521140
Cl         1.18250        1.65960        0.33830
C          0.91190       -0.08930        0.00370
C         -0.53040       -0.48350        0.39780
C         -1.65000        0.28700       -0.31320
C          1.20070       -0.34530       -1.47880
C          1.90580       -0.88430        0.86170
C         -3.02050       -0.14420        0.19060
H         -0.67010       -1.55650        0.20850
H         -0.65320       -0.34940        1.48140
H         -1.54850        1.36480       -0.15170
H         -1.60360        0.11150       -1.39310
H          1.01380       -1.39350       -1.73770
H          0.57720        0.27530       -2.13100
H          2.24650       -0.12690       -1.72470
H          1.79480       -1.96140        0.69200
H          1.75000       -0.70020        1.93100
H          2.94280       -0.61890        0.62550
H         -3.18400       -1.21260        0.01670
H         -3.80730        0.40910       -0.33180
H         -3.12350        0.05000        1.26300
