32
521421
C          0.34540        0.07720       -0.30190
C         -0.56680       -0.87940        0.51510
C          1.84340       -0.36780       -0.19110
C         -2.09070       -0.70030        0.34450
C          0.12600        1.56520        0.06970
C          2.37670       -0.27910        1.24520
C          2.06370       -1.80180       -0.69540
C         -2.53350       -0.85120       -1.11150
C         -2.50860        0.67770        0.86840
C          0.94430        2.55950       -0.74300
H          0.08090       -0.02950       -1.36210
H         -0.33360       -0.78820        1.58300
H         -0.35290       -1.91810        0.24250
H          2.44880        0.28920       -0.82660
H         -2.58550       -1.47270        0.94670
H         -0.87810        1.87000       -0.19010
H          0.28100        1.74060        1.13870
H          1.86780       -0.97150        1.92240
H          3.44320       -0.53130        1.26650
H          2.28000        0.73270        1.64860
H          1.67710       -2.55680       -0.00420
H          3.13590       -1.99680       -0.81260
H          1.59420       -1.94920       -1.67340
H         -2.14650       -0.05140       -1.75040
H         -2.19670       -1.80910       -1.52120
H         -3.62660       -0.82550       -1.17960
H         -2.68260        1.42010        0.08510
H         -3.50100        0.56280        1.32760
H         -1.87480        1.05740        1.67410
H          0.61890        3.58310       -0.52880
H          0.82650        2.38380       -1.81700
H          2.00780        2.49690       -0.49520
