32
521419
C         -0.60730       -0.48390       -0.24090
C          0.78770        0.07870        0.21090
C         -1.81720        0.44810        0.10670
C          1.94080       -0.95340        0.09860
C          1.15780        1.38640       -0.53240
C         -0.61500       -0.85000       -1.73550
C         -3.15920       -0.17910       -0.30220
C         -1.88500        0.79450        1.59950
C          1.71670       -2.23990        0.88210
C          2.48060        1.99860       -0.08670
H         -0.77600       -1.41560        0.31400
H          0.72010        0.32040        1.27870
H         -1.72190        1.38700       -0.45190
H          2.85900       -0.51260        0.50300
H          2.15420       -1.19190       -0.94880
H          0.37510        2.13420       -0.36640
H          1.20980        1.21250       -1.61280
H         -0.65620        0.04210       -2.36830
H         -1.47910       -1.47520       -1.98230
H          0.26570       -1.43110       -2.02050
H         -3.24710       -0.26790       -1.38910
H         -3.99830        0.44280        0.02930
H         -3.28260       -1.17400        0.13870
H         -2.79540        1.35860        1.83040
H         -1.88280       -0.11040        2.21630
H         -1.04270        1.42250        1.90340
H          2.63170       -2.84150        0.88440
H          0.92720       -2.85000        0.43440
H          1.44890       -2.02720        1.92170
H          2.58690        3.00190       -0.51290
H          2.52840        2.08920        1.00290
H          3.33670        1.41220       -0.43230
