35
524749
C         -0.94440        1.01740        0.26890
C         -2.31570        0.61400       -0.32250
C          0.21120        0.20970       -0.35740
C         -2.72220       -0.86570       -0.16670
C          1.57760        0.48850        0.27900
C         -0.75230        2.52790        0.07840
C          2.66570       -0.39520       -0.33650
C         -2.73960       -1.31830        1.29350
C         -4.10280       -1.08840       -0.79230
C          4.02300       -0.14510        0.32070
C          5.09960       -1.04460       -0.26520
H         -0.96020        0.82730        1.34900
H         -2.32490        0.86650       -1.39160
H         -3.09110        1.23760        0.14340
H          0.26070        0.41380       -1.43450
H          0.01130       -0.86160       -0.24850
H         -2.01660       -1.49790       -0.71730
H          1.85560        1.53840        0.13700
H          1.52140        0.30730        1.35900
H          0.13290        2.88840        0.61060
H         -1.61030        3.08270        0.47330
H         -0.64290        2.78310       -0.98100
H          2.73500       -0.19840       -1.41320
H          2.39160       -1.45070       -0.21780
H         -1.73590       -1.29940        1.72870
H         -3.10810       -2.34650        1.37700
H         -3.38820       -0.67730        1.90000
H         -4.39110       -2.14340       -0.73340
H         -4.87160       -0.49850       -0.28150
H         -4.10160       -0.80250       -1.84950
H          4.31480        0.90270        0.18510
H          3.95370       -0.32560        1.39970
H          5.21630       -0.86800       -1.33920
H          4.85330       -2.10060       -0.11500
H          6.06180       -0.84830        0.21790
