17
61143
Cl        -0.57790       -1.71940        0.06660
C         -0.41710        0.07320       -0.00340
C          0.92220        0.50590        0.63330
C         -0.53060        0.50890       -1.46770
C         -1.57780        0.67490        0.80010
C          2.18120       -0.04340       -0.02900
H          0.98590        1.60190        0.62570
H          0.93740        0.20830        1.69020
H         -1.51460        0.26020       -1.88200
H          0.21970        0.02280       -2.10020
H         -0.39740        1.59230       -1.56430
H         -2.54910        0.37300        0.39130
H         -1.54510        0.35960        1.84940
H         -1.53940        1.77010        0.78270
H          2.21140       -1.13630       -0.01020
H          3.06630        0.31810        0.50520
H          2.26760        0.29040       -1.06680
