8
6278
Cl         1.42560        0.88880        0.54720
Cl        -1.48370        0.79010        0.54500
Cl         0.05650       -1.67970        0.54510
C          0.00000        0.00000       -0.05710
C          0.00150        0.00090       -1.58010
H         -0.86400       -0.53880       -1.98230
H         -0.03280        1.02100       -1.98050
H          0.90250       -0.47880       -1.98050
