6
6339
F          1.17230        0.21490        0.00000
C         -0.00630       -0.43340        0.00000
C         -1.16590        0.21850        0.00000
H          0.12800       -1.50430        0.00000
H         -2.10480       -0.32310        0.00000
H         -1.19280        1.30200        0.00000
