7
6375
O         -0.67000       -1.09540        0.00170
O         -0.64710        1.10780        0.00170
N         -0.07370        0.00000       -0.00480
C          1.39080       -0.01230        0.00140
H          1.74870        0.84720       -0.56960
H          1.73670       -0.93990       -0.46020
H          1.71580        0.04830        1.04180
