18
6404
O         -2.03930       -0.01510        0.00180
C          0.40480        0.00310        0.00460
C         -0.89440        0.50940        0.66240
C          1.63050        0.58000        0.73270
C          0.43010        0.45500       -1.46420
C          0.46830       -1.53250        0.06270
H         -0.94930        1.60330        0.62380
H         -0.93880        0.20360        1.71370
H          1.62620        1.67530        0.70400
H          2.56440        0.23750        0.27300
H          1.64330        0.27410        1.78480
H          0.36500        1.54600       -1.54370
H          1.35880        0.14240       -1.95540
H         -0.40100        0.02720       -2.03550
H          0.42630       -1.88920        1.09790
H          1.39840       -1.90590       -0.38070
H         -0.36280       -1.99220       -0.48320
H         -2.82030        0.33780        0.46110
