7
6407
Cl        -0.13130       -0.00610        1.77820
Cl        -1.24550        1.46030       -0.47750
Cl        -1.24580       -1.45680       -0.48720
O          2.04940        0.00040       -0.14720
C         -0.37610        0.00000        0.02560
C          0.94930        0.00230       -0.69200
H          0.89390        0.00600       -1.79630
