7
6420
Cl         1.64570       -1.33960       -0.04540
Cl         0.88040        1.13180       -1.42780
Cl         0.94780        1.03020        1.46610
Cl        -2.01710        0.96910        0.03090
O         -1.19140       -1.53460       -0.01050
C          0.59600        0.09390       -0.01350
C         -0.86130       -0.35080        0.00010
