18
642661
C          1.41480       -0.12010       -0.61000
C         -0.00220        0.19580       -0.19230
C          2.28150       -0.54250        0.56720
C         -0.26140        1.63630        0.16420
C         -1.00280       -0.70500       -0.15130
C         -2.43000       -0.46450        0.22230
H          1.86060        0.74430       -1.11620
H          1.40590       -0.93140       -1.34880
H          3.29530       -0.77390        0.22500
H          1.87880       -1.43550        1.05670
H          2.35170        0.25400        1.31530
H         -1.15680        1.79070        0.77080
H          0.57190        2.03160        0.75630
H         -0.34520        2.23950       -0.74550
H         -0.76560       -1.73580       -0.40970
H         -2.60860       -0.78460        1.25290
H         -3.07720       -1.05880       -0.43180
H         -2.74550        0.57490        0.10920
