18
643783
C          1.35180       -0.26190       -0.66090
C         -1.35170       -0.26190        0.66090
C          0.60230        0.98480       -0.29450
C         -0.60250        0.98490        0.29450
C          2.25080       -0.72290        0.47580
C         -2.25070       -0.72300       -0.47570
H          0.67950       -1.07440       -0.95400
H          1.96380       -0.04950       -1.54570
H         -0.67930       -1.07440        0.95390
H         -1.96380       -0.04970        1.54570
H          1.07740        1.93690       -0.51570
H         -1.07760        1.93680        0.51570
H          2.80930       -1.61510        0.17480
H          2.97670        0.05250        0.74400
H          1.67600       -0.97340        1.37300
H         -1.67600       -0.97340       -1.37310
H         -2.80910       -1.61540       -0.17480
H         -2.97680        0.05220       -0.74380
