11
6553
Br        -0.62100        1.74490        0.13860
Br         2.33930        0.02250       -0.13510
C         -0.51900       -0.15100       -0.36410
C          0.64450       -0.81480        0.35300
C         -1.84380       -0.80150        0.00770
H         -0.38000       -0.15780       -1.45010
H          0.57080       -0.73300        1.44180
H          0.73800       -1.86950        0.07830
H         -2.03460       -0.74670        1.08550
H         -2.68160       -0.31420       -0.50340
H         -1.84780       -1.85790       -0.28140
