13
6557
C         -0.51850        0.04470       -0.00010
C         -0.68220       -1.45010        0.00000
C          0.82020        0.61680        0.00000
C         -1.59490        0.84860        0.00000
C          1.97540       -0.06000        0.00000
H         -0.22210       -1.89120       -0.89090
H         -1.73700       -1.74720        0.00010
H         -0.22210       -1.89110        0.89090
H          0.88320        1.70380        0.00010
H         -2.60160        0.44280        0.00000
H         -1.50450        1.93050        0.00000
H          2.91820        0.47770        0.00000
H          2.02290       -1.14280       -0.00010
