13
6561
O         -1.80770       -0.00990        0.27110
C          0.52590       -0.00670       -0.41790
C          1.54090        0.87780        0.29620
C          0.60060       -1.44310        0.08550
C         -0.85970        0.58190       -0.23500
H          0.73370        0.00310       -1.49430
H          1.49990        1.90470       -0.08320
H          2.55910        0.50360        0.14790
H          1.34400        0.91850        1.37340
H          1.59760       -1.86360       -0.08170
H         -0.12450       -2.07730       -0.43620
H          0.38070       -1.50310        1.15720
H         -0.98680        1.61040       -0.61610
