14
6563
Cl        -0.66960        1.61720        0.12820
C         -0.47160       -0.09410       -0.35690
C          0.79070       -0.70060        0.26720
C         -1.71630       -0.87030        0.05650
C          2.06680        0.04780       -0.09520
H         -0.38520       -0.10200       -1.44870
H          0.69710       -0.73240        1.35990
H          0.88960       -1.74000       -0.06950
H         -2.61450       -0.44970       -0.40870
H         -1.64010       -1.91660       -0.25830
H         -1.85800       -0.85600        1.14290
H          2.93820       -0.50090        0.27720
H          2.09680        1.04660        0.34960
H          2.16980        0.14600       -1.18050
