9
6585
O          0.59200        0.80610        0.00000
O         -0.28370       -1.33440        0.00000
O          1.84010        0.06070        0.00000
C         -1.73620        0.58510        0.00000
C         -0.41220       -0.11750       -0.00010
H         -1.83010        1.19950        0.89900
H         -1.83030        1.19970       -0.89880
H         -2.54020       -0.15660        0.00010
H          2.00830        0.14720        0.95400
