25
6627
Cl         0.01540        2.45580        1.67480
Cl         0.06900        2.51530       -1.62790
Si         0.02770        1.31700       -0.00120
C         -1.52820        0.29240        0.04420
C          1.51590        0.25450       -0.04910
C         -1.74640       -0.59780        1.09600
C          1.48520       -1.02090       -0.65510
C         -2.47450        0.41510       -0.97330
C          2.73730        0.67930        0.51900
C         -2.91060       -1.36530        1.12990
C          2.61970       -1.83170       -0.69120
C         -3.63870       -0.35240       -0.93910
C          3.87190       -0.13150        0.48280
C         -3.85670       -1.24270        0.11250
C          3.81300       -1.38700       -0.12230
H         -1.02580       -0.71530        1.90210
H          0.57560       -1.40050       -1.11680
H         -2.34700        1.09410       -1.81110
H          2.82680        1.65490        0.99280
H         -3.08040       -2.05890        1.94830
H          2.57480       -2.80840       -1.16390
H         -4.37580       -0.25760       -1.73110
H          4.80180        0.21520        0.92380
H         -4.76310       -1.84030        0.13900
H          4.69660       -2.01780       -0.15120
