8
67711
Cl         1.42590       -1.43570        0.61100
Cl         1.40300        1.47370        0.55000
Cl         0.56530       -0.03730       -1.79020
F         -1.54200        1.08690        0.05780
F         -1.54140       -1.08750        0.05780
C          0.55920        0.00010       -0.00390
C         -0.87010       -0.00020        0.51760
H         -0.92540        0.00110        1.61090
