11
67895
F          0.00000       -0.81880       -1.08850
F         -0.00020       -0.81920        1.08830
C          0.00000       -0.00860        0.00000
C          1.26360        0.82320        0.00020
C         -1.26340        0.82340        0.00000
H          2.14190        0.16940        0.00020
H          1.32110        1.45460       -0.89170
H          1.32090        1.45440        0.89220
H         -1.32080        1.45460        0.89200
H         -2.14180        0.16980       -0.00020
H         -1.32050        1.45490       -0.89190
