20
6893
N          2.41720       -0.85290        0.00070
C         -0.02290       -0.76160       -0.00040
C         -1.20110       -0.01490        0.00000
C          1.21280       -0.11470       -0.00060
C         -1.14350        1.37880        0.00020
C         -0.08810       -2.25680       -0.00010
C          1.27040        1.27890       -0.00020
C         -2.53700       -0.68250        0.00030
C          0.09230        2.02570        0.00020
H         -2.05130        1.97650        0.00050
H         -1.09680       -2.67440       -0.00010
H          0.40970       -2.65370       -0.89200
H          0.40950       -2.65320        0.89220
H          2.22660        1.79600        0.00010
H         -2.66610       -1.29670       -0.89710
H         -2.66570       -1.29650        0.89770
H         -3.35190        0.05050        0.00040
H          0.13720        3.11090        0.00050
H          2.41190       -1.86300       -0.00280
H          3.30240       -0.36310       -0.00200
