30
6908
C          1.38930       -0.12450       -0.00020
C          0.80230        1.14090       -0.00020
C          0.58700       -1.26550       -0.00040
C         -0.58690        1.26530       -0.00060
C         -0.80230       -1.14100       -0.00040
C         -1.38930        0.12440       -0.00050
C          2.87970       -0.25780        0.00040
C          1.66330        2.36490        0.00030
C          1.21660       -2.62270        0.00020
C         -1.21670        2.62310        0.00060
C         -1.66340       -2.36480        0.00070
C         -2.87960        0.25770        0.00020
H          3.37300        0.55900       -0.53600
H          3.25900       -0.29180        1.02650
H          3.22020       -1.14920       -0.53610
H          1.88330        2.67650       -1.02560
H          1.20230        3.20050        0.53640
H          2.60500        2.21370        0.53750
H          2.17060       -2.64120        0.53670
H          0.61490       -3.36280        0.53720
H          1.37690       -2.96900       -1.02560
H         -0.61490        3.36360       -0.53570
H         -2.17090        2.64190       -0.53560
H         -1.37670        2.96810        1.02690
H         -1.88340       -2.67510        1.02690
H         -2.60500       -2.21400       -0.53670
H         -1.20250       -3.20110       -0.53440
H         -3.21970        1.14900        0.53690
H         -3.25970        0.29170       -1.02560
H         -3.37260       -0.55910        0.53690
