43
69825
C         -1.05500        0.03490        0.33670
C          0.16250        0.74350       -0.26140
C         -2.35760        0.54940       -0.28060
C          1.46530        0.20320        0.33270
C         -3.57080       -0.18380        0.29590
C          2.71620        0.90200       -0.21030
C         -4.90360        0.26960       -0.30950
C          4.02130        0.31130        0.32960
C         -6.11290       -0.48160        0.25410
C          5.27500        1.01860       -0.20340
C         -7.44340       -0.02820       -0.35300
C          6.60530        0.47700        0.32460
C         -8.64310       -0.81700        0.14870
C          6.82750       -0.92620       -0.05040
C          7.01350       -2.07280       -0.35390
H         -1.07550        0.19000        1.42230
H         -0.97020       -1.04520        0.16560
H          0.17360        0.60670       -1.34940
H          0.09150        1.82120       -0.07110
H         -2.45630        1.62550       -0.09430
H         -2.33040        0.40990       -1.36800
H          1.44130        0.31300        1.42400
H          1.53610       -0.87160        0.12410
H         -3.60180       -0.03380        1.38230
H         -3.45360       -1.26180        0.12880
H          2.71940        0.83410       -1.30520
H          2.66920        1.96870        0.04100
H         -5.03160        1.34430       -0.13130
H         -4.86920        0.13060       -1.39700
H          4.05770       -0.75300        0.06950
H          4.01710        0.37010        1.42490
H         -6.14920       -0.34650        1.34200
H         -5.98280       -1.55560        0.07260
H          5.27260        0.96110       -1.29980
H          5.21280        2.08380        0.05240
H         -7.39440       -0.12170       -1.44440
H         -7.59870        1.03460       -0.13230
H          6.63250        0.57530        1.41600
H          7.42220        1.09210       -0.07030
H         -8.74700       -0.71980        1.23400
H         -9.56260       -0.44890       -0.31680
H         -8.54000       -1.87950       -0.09280
H          7.17800       -3.08990       -0.62310
