15
69869
F         -1.34070        2.37740        0.00020
F         -1.35420       -2.37000        0.00000
F          1.37190       -2.37180        0.00000
F          1.38480        2.36430        0.00080
F          2.74550       -0.00690        0.00000
C         -1.38350        0.00380       -0.00020
C         -0.68290        1.20980       -0.00070
C         -0.68950       -1.20620        0.00030
C          0.70550       -1.21020        0.00030
C          0.71190        1.20590       -0.00080
C          1.40620       -0.00400       -0.00020
C         -2.87510        0.00800        0.00030
H         -3.27460       -0.87000        0.51920
H         -3.26970        0.88820        0.51890
H         -3.25070        0.00890       -1.02770
