6
713
O          1.12800        0.20910        0.00000
N         -1.18780        0.17910        0.00000
C          0.05980       -0.38820        0.00000
H         -1.30850        1.18640        0.00010
H         -2.03050       -0.38610       -0.00010
H         -0.00140       -1.48830       -0.00010
