17
7242
N          1.75220       -1.49420        0.00110
C          0.62040        0.66790       -0.00020
C          0.56710       -0.72590       -0.00050
C         -0.56010        1.41100        0.00040
C         -0.66660       -1.37660       -0.00070
C          1.92790        1.39100       -0.00050
C         -1.79390        0.76030        0.00050
C         -1.84710       -0.63350       -0.00010
H         -0.53720        2.49760        0.00070
H         -0.72270       -2.46220       -0.00070
H          2.50730        1.13780        0.89360
H          2.50700        1.13770       -0.89470
H          1.79150        2.47810       -0.00060
H         -2.71310        1.33870        0.00100
H         -2.80780       -1.14010        0.00000
H          2.66020       -1.05110       -0.00160
H          1.69320       -2.50410       -0.00150
