11
7285
Cl         1.33900       -1.70230        0.17480
Cl        -2.44120        0.43050       -0.05770
Cl         1.38600        1.62810        0.59610
C          0.07970       -0.58520       -0.45340
C         -1.07450       -0.53640        0.54900
C          0.71100        0.76530       -0.80880
H         -0.27780       -1.04690       -1.38100
H         -0.77050       -0.11160        1.51040
H         -1.46360       -1.54240        0.73840
H          1.52840        0.62920       -1.52490
H         -0.01930        1.43150       -1.27710
