16
7298
O         -1.83880        0.00300       -0.57110
C         -0.86320       -0.09410        0.46220
C          0.00190        1.16240        0.48340
C          0.08780       -1.25960        0.17440
C          1.15920        0.82040       -0.44330
C          1.45300       -0.63200       -0.10560
H         -1.39670       -0.22270        1.40940
H          0.38530        1.33640        1.49570
H         -0.53070        2.05720        0.14810
H         -0.24590       -1.85300       -0.68400
H          0.16060       -1.93150        1.03650
H          2.02600        1.46830       -0.28470
H          0.84820        0.91110       -1.49080
H          1.98690       -1.14550       -0.91070
H          2.07590       -0.68650        0.79540
H         -2.35400       -0.82170       -0.56310
