15
7368
F          2.11750        1.25170       -0.00080
F          2.11660       -0.62630        1.08420
F          2.09470       -0.63010       -1.09030
C          0.07840        0.00060        0.00070
C         -0.61890        1.20870       -0.00050
C         -0.61910       -1.20730        0.00240
C          1.56990        0.00030        0.00050
C         -2.01380        1.20880       -0.00020
C         -2.01400       -1.20720        0.00270
C         -2.71140        0.00080        0.00140
H         -0.09340        2.15960       -0.00170
H         -0.08470       -2.15360        0.00350
H         -2.55690        2.14930       -0.00120
H         -2.55720       -2.14770        0.00400
H         -3.79740        0.00100        0.00160
