16
7452
O         -3.51330        0.04460       -0.00040
O          3.51300        0.04510       -0.00120
O         -2.41610       -1.85680       -0.00030
O          2.41660       -1.85680        0.00050
N         -2.43820       -0.60230       -0.00010
N          2.43820       -0.60230       -0.00020
C         -1.20820        0.10750        0.00020
C          1.20780        0.10700        0.00050
C         -0.00040       -0.59030        0.00050
C         -1.20780        1.50250        0.00000
C          1.20800        1.50200        0.00030
C          0.00020        2.19970        0.00010
H         -0.00040       -1.67780        0.00040
H         -2.12930        2.07920       -0.00020
H          2.12950        2.07850        0.00020
H          0.00040        3.28590       -0.00010
