24
7463
C          2.16610       -0.35630        0.00010
C          0.68260       -0.20340        0.00010
C          2.81970        0.24150        1.26040
C          2.81980        0.24070       -1.26050
C          0.11270        1.06980       -0.00010
C         -0.13500       -1.33340        0.00030
C         -2.09250        0.08270       -0.00010
C         -1.27480        1.21290       -0.00020
C         -1.52260       -1.19040        0.00010
C         -3.57590        0.23570        0.00000
H          2.41220       -1.42700        0.00040
H          2.69500        1.32860        1.31030
H          3.89410        0.02850        1.27320
H          2.38080       -0.18860        2.16750
H          2.38080       -0.18980       -2.16740
H          3.89420        0.02770       -1.27320
H          2.69500        1.32780       -1.31100
H          0.73040        1.96370       -0.00070
H          0.29240       -2.33260        0.00000
H         -1.70700        2.21000       -0.00220
H         -2.14910       -2.07850       -0.00160
H         -4.05950       -0.60000        0.51720
H         -3.87870        1.15150        0.51930
H         -3.94950        0.27540       -1.02800
