30
74791
N          4.68230       -1.75660        0.28110
C         -0.99880       -0.00630       -0.26200
C          0.19910        0.77790        0.28370
C         -2.33400        0.42140        0.35120
C          1.53070        0.36580       -0.34950
C         -3.49620       -0.38260       -0.23600
C          2.73020        1.15910        0.18680
C         -4.83460        0.06490        0.35120
C          4.09440        0.72610       -0.35420
C         -5.99500       -0.70870       -0.25420
C          4.42190       -0.66090        0.00200
H         -0.84090       -1.07600       -0.07660
H         -1.04350        0.12310       -1.35060
H          0.25630        0.63670        1.37000
H          0.03610        1.84880        0.11120
H         -2.30000        0.28220        1.43840
H         -2.49400        1.49050        0.16620
H          1.47340        0.49830       -1.43690
H          1.68220       -0.70490       -0.16920
H         -3.34430       -1.45020       -0.03570
H         -3.51460       -0.25770       -1.32570
H          2.74130        1.08330        1.28220
H          2.58380        2.22030       -0.05000
H         -4.83150       -0.08030        1.43770
H         -4.98320        1.13540        0.16730
H          4.86550        1.39480        0.04520
H          4.10800        0.83900       -1.44430
H         -5.89350       -1.78160       -0.06220
H         -6.94180       -0.37370        0.18070
H         -6.04580       -0.55640       -1.33710
