16
7492
O         -3.42270        1.09770        0.00020
O          3.42290        1.09770        0.00030
O         -3.42300       -1.09750       -0.00010
O          3.42300       -1.09750        0.00040
N         -2.81460        0.00000        0.00010
N          2.81460        0.00010        0.00000
C         -1.39490       -0.00020        0.00010
C          1.39490        0.00010       -0.00040
C         -0.69770        1.20790        0.00000
C          0.69720        1.20800       -0.00040
C         -0.69730       -1.20820        0.00000
C          0.69760       -1.20810       -0.00020
H         -1.20800        2.16770        0.00000
H          1.20740        2.16780       -0.00040
H         -1.20770       -2.16810        0.00010
H          1.20800       -2.16800       -0.00010
