19
7517
O          2.58670        0.48920        0.26240
N          1.81900       -0.67370        0.18570
C         -2.13810        0.41850        0.01120
C         -1.68720       -0.99400        0.38810
C         -1.02330        1.44090        0.24050
C         -0.43150       -1.40680       -0.37070
C          0.24610        1.07460       -0.52020
C          0.62820       -0.34890       -0.19700
H         -2.44490        0.43810       -1.04170
H         -3.01570        0.69400        0.60690
H         -2.49360       -1.70640        0.18190
H         -1.49150       -1.03150        1.46710
H         -0.80320        1.49910        1.31380
H         -1.36740        2.43310       -0.07280
H         -0.64350       -1.50380       -1.44120
H         -0.06480       -2.37210       -0.00710
H          1.00590        1.82630       -0.30130
H          0.05650        1.12120       -1.59960
H          3.44520        0.13820        0.55330
