30
77289
S         -4.59050       -0.74150        0.03320
C          0.67310       -0.40350       -0.07170
C          1.94270        0.45290       -0.06250
C         -0.61610        0.41910       -0.01130
C          3.23230       -0.37050       -0.04860
C         -1.85180       -0.48620        0.00010
C          4.46410        0.53220        0.03350
C         -3.13350        0.34120        0.02480
C          5.74790       -0.28070        0.08630
C         -5.86810        0.53680        0.01620
H          0.66740       -1.02470       -0.97590
H          0.70020       -1.09020        0.78360
H          1.93980        1.11030       -0.94070
H          1.92320        1.10440        0.82010
H         -0.65830        1.09330       -0.87520
H         -0.61030        1.04550        0.88890
H          3.28310       -0.98880       -0.95280
H          3.22020       -1.05300        0.80990
H         -1.80890       -1.14300        0.87810
H         -1.83590       -1.12760       -0.89030
H          4.49460        1.19980       -0.83550
H          4.40450        1.16470        0.92700
H         -3.15620        0.97260        0.91920
H         -3.17830        0.98820       -0.85760
H          5.85470       -0.90340       -0.80780
H          5.76280       -0.93420        0.96430
H          6.61540        0.38420        0.14300
H         -5.78390        1.17210        0.90190
H         -6.85280        0.06200        0.02220
H         -5.78350        1.14880       -0.88560
