21
7767
O          3.03270       -1.26720       -0.19760
O         -3.28650       -0.87210       -0.15040
N         -0.00920        0.75840        0.28090
C          0.83890       -0.31490       -0.23630
C         -1.38860        0.58350       -0.17250
C          0.50470        2.06220       -0.13710
C          2.25040       -0.19740        0.31630
C         -1.94240       -0.75250        0.29670
H          0.85940       -0.32810       -1.33430
H          0.50050       -1.30650        0.07680
H         -1.46950        0.65520       -1.26560
H         -2.02530        1.38110        0.23190
H         -0.20220        2.85580        0.13470
H          0.66910        2.12080       -1.21930
H          1.43210        2.32210        0.38200
H          2.25860       -0.26570        1.40900
H          2.75840        0.72430        0.02200
H         -1.93130       -0.82690        1.38920
H         -1.42350       -1.61300       -0.12890
H          3.04950       -1.18110       -1.16610
H         -3.62380       -1.72260        0.17920
