19
7768
O         -2.48020        0.07350       -0.35500
N         -0.62940       -1.23480       -0.05990
C          1.88240        0.74240       -0.00370
C          1.77340       -0.73370       -0.38150
C          0.61400        1.55580       -0.25470
C          0.71800       -1.48770        0.41720
C         -0.56450        1.12950        0.61350
C         -1.31370       -0.04490        0.02400
H          2.69920        1.18690       -0.58580
H          2.17200        0.83060        1.05090
H          1.57800       -0.82900       -1.45650
H          2.74840       -1.19920       -0.19230
H          0.34720        1.50810       -1.31750
H          0.84270        2.60530       -0.03190
H          0.88280       -2.56550        0.31220
H          0.76950       -1.24410        1.48360
H         -1.27490        1.96330        0.67600
H         -0.25800        0.90030        1.63960
H         -1.13160       -2.02330       -0.45680
