19
7771
O         -2.46750        0.90840       -0.00010
C         -0.75900       -0.77250       -0.00040
C          1.56090       -0.09770        0.00050
C          0.59580       -1.10480        0.00010
C         -1.14860        0.56680       -0.00030
C          1.17120        1.24160        0.00040
C         -0.18360        1.57390       -0.00010
C         -1.77840       -1.86320        0.00030
C          3.00930       -0.45250       -0.00050
H          0.90420       -2.14750        0.00190
H          1.91330        2.03560        0.00230
H         -0.47290        2.62140        0.00040
H         -2.40510       -1.79710        0.89570
H         -2.41350       -1.79090       -0.88880
H         -1.31620       -2.85620       -0.00570
H          3.18810       -1.37430       -0.56450
H          3.61030        0.33250       -0.47190
H          3.36210       -0.59370        1.02590
H         -2.54420        1.87800        0.00000
