8
7839
Br         2.30640       -0.12190        0.01400
Br        -2.30650        0.12180        0.01400
C          0.48940        0.57430       -0.01400
C         -0.48930       -0.57420       -0.01400
H          0.40370        1.19430       -0.91120
H          0.38670        1.20980        0.87050
H         -0.38650       -1.20980        0.87050
H         -0.40360       -1.19410       -0.91120
