14
785
O          2.75580        0.00000       -0.00010
O         -2.75610       -0.00010       -0.00020
C          1.39490        0.00000        0.00000
C         -1.39480        0.00000        0.00010
C          0.69760       -1.20800        0.00010
C         -0.69730       -1.20800        0.00000
C          0.69740        1.20800        0.00000
C         -0.69750        1.20790        0.00010
H          1.23540       -2.15220        0.00010
H         -1.22880       -2.15590        0.00000
H          1.22890        2.15590       -0.00010
H         -1.23530        2.15210        0.00000
H          3.07090        0.92020       -0.00010
H         -3.07100       -0.92030       -0.00020
