6
7860
O         -1.70480        0.15010        0.00000
O          1.70490       -0.15010        0.00000
C         -0.62350       -0.41050        0.00000
C          0.62340        0.41050        0.00000
H         -0.47410       -1.50130       -0.00090
H          0.47410        1.50140        0.00000
