32
78849
C          0.79260        0.27510        0.17280
C         -0.79260        0.27520       -0.17290
C          1.49530       -0.98950       -0.43210
C         -1.49520       -0.98980        0.43150
C          1.02250        0.27450        1.70680
C          1.49010        1.54530       -0.37900
C         -1.02260        0.27580       -1.70680
C         -1.49010        1.54500        0.38010
C          3.00410       -1.10570       -0.22360
C         -3.00410       -1.10580        0.22320
H          1.32450       -1.02650       -1.51320
H          1.05160       -1.89790       -0.01150
H         -1.32430       -1.02740        1.51250
H         -1.05170       -1.89800        0.01020
H          0.49380        1.09290        2.20270
H          0.70850       -0.66690        2.16740
H          2.08180        0.40870        1.95330
H          1.03900        2.46640       -0.00150
H          1.47960        1.57670       -1.47210
H          2.54090        1.59010       -0.07140
H         -0.70830       -0.66510       -2.16820
H         -0.49400        1.09490       -2.20200
H         -2.08200        0.40990       -1.95320
H         -1.47960        1.57540        1.47320
H         -1.03900        2.46640        0.00340
H         -2.54100        1.59000        0.07250
H          3.27030       -1.12810        0.83630
H          3.54680       -0.29000       -0.70850
H          3.36370       -2.04030       -0.66810
H         -3.54680       -0.29050        0.70880
H         -3.27060       -1.12750       -0.83660
H         -3.36360       -2.04080        0.66710
