13
7903
O          1.60100        1.10310        0.15790
O          1.59770       -1.10000        0.13120
N          1.07150        0.00510       -0.08850
C         -1.27730       -0.04410        0.48480
C         -0.28460        0.01110       -0.66210
C         -2.70830        0.02480       -0.02330
H         -1.14460       -0.96810        1.06120
H         -1.10750        0.78730        1.18040
H         -0.39010        0.92480       -1.25600
H         -0.37140       -0.85490       -1.32610
H         -2.88680        0.95740       -0.56820
H         -2.92710       -0.81270       -0.69350
H         -3.41090       -0.01840        0.81480
