23
7907
C          0.08580        0.65660       -0.71730
C         -1.38330        0.28340       -0.43380
C          1.12210        0.13830        0.30000
C         -1.59560       -1.22790       -0.34120
C         -1.84180        0.94930        0.86730
C          1.08730       -1.38310        0.44710
C          2.52560        0.58350       -0.12210
H          0.16520        1.74990       -0.78260
H          0.34690        0.27660       -1.71460
H         -1.99080        0.67430       -1.25980
H          0.92730        0.58600        1.28160
H         -2.65240       -1.42530       -0.57080
H         -1.03770       -1.78490       -1.09720
H         -1.47350       -1.64200        0.65960
H         -2.91380        0.78200        1.02010
H         -1.32030        0.55220        1.74380
H         -1.67810        2.03140        0.83210
H          0.36590       -1.71610        1.19200
H          0.97390       -1.90410       -0.50650
H          2.04720       -1.72980        0.85370
H          3.27190        0.28320        0.62120
H          2.80920        0.14420       -1.08480
H          2.57530        1.67330       -0.21840
