21
7914
O          0.00200        0.00000        0.56610
C         -1.17120       -0.09980       -0.23540
C          1.17040        0.09990       -0.23480
C         -2.20810       -0.93790        0.49700
C         -1.68720        1.29730       -0.54420
C          2.20830        0.93770        0.49620
C          1.68590       -1.29720       -0.54490
H         -0.95740       -0.61400       -1.18120
H          0.95670        0.61420       -1.18060
H         -3.12470       -1.04370       -0.09110
H         -1.81020       -1.93650        0.70790
H         -2.46090       -0.48950        1.46410
H         -2.60650        1.25750       -1.13700
H         -0.94800        1.88340       -1.09910
H         -1.89280        1.84860        0.38020
H          3.12420        1.04330       -0.09320
H          1.81110        1.93640        0.70770
H          2.46250        0.48930        1.46300
H          2.60440       -1.25720       -1.13870
H          0.94590       -1.88320       -1.09910
H          1.89270       -1.84890        0.37900
