12
7950
Cl        -1.31360        2.82550       -0.00010
Cl        -1.79020       -2.55030       -0.00020
Cl         3.10380       -0.27520        0.00010
C         -0.58820        1.26470        0.00010
C         -0.80120       -1.14180        0.00020
C          1.38940       -0.12300       -0.00030
C         -1.38950        0.12300        0.00020
C          0.80130        1.14180       -0.00010
C          0.58820       -1.26470        0.00010
H         -2.47320        0.21890        0.00020
H          1.42620        2.03230       -0.00010
H          1.04700       -2.25130        0.00010
