28
79752
C          2.40160       -0.17790        0.31930
C          0.09090        0.43940       -0.02230
C          3.42560       -1.19480        0.69600
C          1.04750       -0.51200        0.33200
C         -1.31390        0.09290       -0.00920
C          2.79920        1.10770       -0.04780
C          0.48860        1.72500       -0.38930
C          1.84270        2.05930       -0.40190
C          3.91280       -2.00070       -0.50540
C         -2.06740        0.27860        1.14980
C         -1.91470       -0.42680       -1.15580
C         -3.42170       -0.05530        1.16230
C         -3.26890       -0.76050       -1.14340
C         -4.02240       -0.57490        0.01570
H          4.28150       -0.70420        1.17620
H          3.01540       -1.87790        1.45020
H          0.74150       -1.51680        0.61690
H          3.85130        1.38010       -0.06380
H         -0.24400        2.47870       -0.66840
H          2.15240        3.06010       -0.68820
H          3.08690       -2.53970       -0.98180
H          4.66090       -2.73460       -0.18970
H          4.37010       -1.35090       -1.25920
H         -1.61480        0.68260        2.05230
H         -1.34190       -0.57800       -2.06780
H         -4.00850        0.08930        2.06470
H         -3.73680       -1.16520       -2.03610
H         -5.07690       -0.83480        0.02530
