14
8005
Cl         2.68820       -0.38600        0.00170
C         -0.02630       -0.31700        0.00650
C         -1.31550        0.50460        0.01060
C          1.19940        0.58700       -0.01020
C         -2.54570       -0.38860       -0.00860
H         -0.00250       -0.96240        0.89340
H         -0.01390       -0.97430       -0.87180
H         -1.34700        1.14340        0.90090
H         -1.33890        1.16530       -0.86400
H          1.22180        1.23830        0.86860
H          1.21750        1.21180       -0.90810
H         -2.56960       -1.04220        0.86930
H         -3.45570        0.21950       -0.00410
H         -2.56110       -1.01630       -0.90520
