19
8108
O         -1.22110        0.39120       -0.18030
C          1.16900        0.36280       -0.04000
C          2.41560       -0.50680        0.09660
C         -0.10280       -0.47340       -0.03540
C          3.68530        0.32780        0.04820
C         -2.39170       -0.29240       -0.16610
C         -3.55430        0.19080        0.27720
H          1.12630        1.09650        0.77450
H          1.21410        0.94740       -0.96750
H          2.44400       -1.24780       -0.71080
H          2.38240       -1.05920        1.04280
H         -0.07070       -1.18880       -0.86750
H         -0.17930       -1.02860        0.90840
H          3.76530        0.86610       -0.90170
H          3.70410        1.06050        0.86130
H          4.56550       -0.31470        0.14940
H         -2.32780       -1.29490       -0.56860
H         -4.45170       -0.41690        0.24840
H         -3.62640        1.19710        0.67440
