19
8112
O         -3.60000       -0.34580       -0.01230
N         -0.00720        0.44840        0.01120
N          3.63890       -0.33680       -0.00380
C          1.19160       -0.38280       -0.00590
C         -1.20850       -0.37390        0.02080
C          2.44000        0.49450       -0.00470
C         -2.45480        0.49640       -0.00540
H          1.19460       -1.02450       -0.89620
H          1.20330       -1.03390        0.87740
H         -1.23580       -1.00890        0.91510
H         -1.22760       -1.04990       -0.84360
H         -0.01300        1.05960       -0.80500
H          2.45130        1.14360        0.87850
H          2.45530        1.13810       -0.89140
H         -2.48180        1.12160       -0.90420
H         -2.50360        1.14190        0.87790
H          3.65390       -0.91720        0.83400
H          4.46350        0.26000        0.04770
H         -4.38040        0.23420       -0.02840
