24
8129
O         -4.32450        0.30410       -0.02120
C          0.59160        0.42670        0.03980
C         -0.64730       -0.47100        0.01290
C          1.90890       -0.35410        0.04960
C         -1.93050        0.35810       -0.01970
C          3.14730        0.54210        0.00210
C         -3.17040       -0.52470       -0.00460
C          4.42500       -0.28120       -0.05890
H          0.55340        1.07460        0.92430
H          0.57490        1.08660       -0.83660
H         -0.64680       -1.11860        0.89790
H         -0.60920       -1.12460       -0.86690
H          1.94820       -0.98280        0.94770
H          1.92450       -1.03320       -0.81220
H         -1.94510        0.99630       -0.91200
H         -1.96290        1.04160        0.83810
H          3.09940        1.19580       -0.87640
H          3.17140        1.18800        0.88720
H         -3.20540       -1.13790        0.90100
H         -3.20290       -1.18820       -0.87450
H          4.51700       -0.92780        0.81960
H          5.29860        0.37740       -0.08910
H          4.44370       -0.91160       -0.95370
H         -4.30110        0.82380       -0.84280
