38
8192
Cl         7.80320       -0.53230        0.05200
C         -0.02710       -0.37480       -0.03460
C         -1.29150        0.48890       -0.01910
C          1.23430        0.49110       -0.03110
C         -2.55350       -0.37600       -0.05480
C          2.53250       -0.32140       -0.05390
C         -3.85020        0.43790       -0.01870
C          3.83050        0.49000        0.00540
C         -5.11100       -0.42850        0.02020
C          5.09200       -0.37560        0.00320
C         -6.37420        0.43330        0.04290
C          6.34670        0.48850        0.03900
C         -7.63160       -0.42130        0.04940
H         -0.02770       -1.01440       -0.92540
H         -0.02090       -1.03660        0.83970
H         -1.29970        1.11360        0.88220
H         -1.28910        1.16520       -0.88240
H          1.22010        1.16110       -0.89960
H          1.23080        1.12980        0.86080
H         -2.54080       -1.06390        0.79990
H         -2.54500       -0.99600       -0.95990
H          2.52120       -1.01990        0.79260
H          2.54420       -0.93790       -0.96170
H         -3.83760        1.09190        0.86220
H         -3.88460        1.09270       -0.89830
H          3.81990        1.11230        0.90890
H          3.85810        1.17580       -0.85040
H         -5.08710       -1.07280        0.90730
H         -5.12840       -1.08620       -0.85720
H          5.07400       -1.04630        0.87090
H          5.09930       -1.00670       -0.89390
H         -6.37040        1.07630        0.93070
H         -6.39260        1.09080       -0.83410
H          6.37100        1.11260        0.93740
H          6.40400        1.13860       -0.83920
H         -7.68190       -1.05220       -0.84380
H         -7.66010       -1.07010        0.93060
H         -8.52210        0.21470        0.06660
