22
8471
N         -0.00490        0.00210        0.18010
C         -1.34750       -0.32930       -0.29550
C          0.38120        1.33900       -0.26960
C          0.96180       -0.99230       -0.28420
C         -2.37510        0.65960        0.22810
C          1.77480        1.70050        0.21590
C          0.60980       -2.37970        0.22540
H         -1.39660       -0.37020       -1.39100
H         -1.66490       -1.30560        0.08420
H          0.33630        1.43380       -1.36190
H         -0.28570        2.09610        0.15570
H          1.04230       -1.00780       -1.37850
H          1.95880       -0.78490        0.11700
H         -2.27000        0.82260        1.30630
H         -2.32650        1.62520       -0.28450
H         -3.38340        0.26650        0.05510
H          1.90540        1.48270        1.28150
H          2.56160        1.19540       -0.35280
H          1.93990        2.77590        0.08250
H          0.38660       -2.37500        1.29790
H         -0.23370       -2.82260       -0.31290
H          1.46160       -3.05250        0.07350
