32
85926
C         -0.36040        0.62600        0.64520
C         -1.80730        0.04650        0.54840
C          0.69680       -0.24780       -0.06660
C         -2.38050        0.06970       -0.88470
C          2.13700        0.21500        0.18570
C         -0.31850        2.07620        0.14180
C         -1.87440       -1.36300        1.15410
C          3.14420       -0.72150       -0.48440
C         -3.81040       -0.44970       -0.97420
C          4.57350       -0.25140       -0.26530
H         -0.10330        0.65250        1.71350
H         -2.44790        0.68800        1.17010
H          0.50940       -0.25610       -1.14680
H          0.61590       -1.28440        0.27750
H         -1.75300       -0.52520       -1.55750
H         -2.37770        1.09540       -1.26900
H          2.32920        0.25190        1.26460
H          2.28240        1.22720       -0.20740
H          0.59680        2.57800        0.47180
H         -1.15880        2.65440        0.54100
H         -0.35100        2.12910       -0.95100
H         -2.91050       -1.64470        1.36940
H         -1.45990       -2.11840        0.47900
H         -1.32940       -1.40950        2.10290
H          2.94500       -0.77400       -1.56110
H          3.03350       -1.73590       -0.08390
H         -4.46600        0.07940       -0.27560
H         -4.20060       -0.29670       -1.98590
H         -3.86460       -1.52150       -0.76210
H          4.81530       -0.21600        0.80170
H          4.72700        0.74740       -0.68610
H          5.27630       -0.93600       -0.75050
