47
86735
C         -4.19400       -0.75920       -0.26450
C         -5.51720       -0.38150        0.43190
C         -2.95950       -0.13820        0.39650
C         -1.63960       -0.57850       -0.24720
C         -0.36410       -0.06070        0.42560
C          0.91880       -0.48670       -0.29210
C          2.15490        0.12750        0.36980
C          3.46900       -0.29750       -0.29360
C         -5.78560        1.13460        0.51380
C          4.70700        0.29760        0.38310
C         -6.68190       -1.11570       -0.24150
C          6.01800       -0.07760       -0.31590
C         -5.98660        1.83440       -0.82340
C          7.29280        0.47230        0.32870
C          8.56790        0.02910       -0.37150
H         -4.22580       -0.46650       -1.32090
H         -4.08720       -1.85160       -0.25030
H         -5.46050       -0.74810        1.46600
H         -3.01100        0.95450        0.34210
H         -2.94500       -0.40730        1.45960
H         -1.60230       -1.67530       -0.25970
H         -1.64120       -0.25810       -1.29690
H         -0.33680       -0.41480        1.46340
H         -0.40890        1.03470        0.46620
H          0.87540       -0.17410       -1.34230
H          0.99750       -1.58030       -0.28260
H          2.07610        1.22130        0.34230
H          2.17960       -0.16240        1.42770
H          3.54370       -1.39180       -0.28090
H          3.45180        0.00700       -1.34730
H         -6.69000        1.29350        1.11580
H         -4.97930        1.63250        1.06300
H          4.61720        1.39060        0.40660
H          4.74560       -0.03980        1.42600
H         -6.55660       -2.19990       -0.14660
H         -7.63530       -0.85070        0.22740
H         -6.74690       -0.88430       -1.30940
H          6.09040       -1.17200       -0.35580
H          5.97410        0.26690       -1.35690
H         -6.85800        1.44490       -1.35730
H         -6.15300        2.90450       -0.66080
H         -5.10760        1.72980       -1.46580
H          7.25060        1.56790        0.33430
H          7.33490        0.15080        1.37610
H          8.57680        0.36330       -1.41370
H          9.44400        0.45170        0.13010
H          8.66090       -1.06150       -0.35950
