28
86927
C          0.21450        0.00080        0.00020
C          2.30790        1.20750       -0.00060
C          2.30640       -1.20850        0.00040
C         -1.23230        0.00160       -0.00010
C          0.91150       -1.20760        0.00050
C          0.91300        1.20830       -0.00030
C          3.00450       -0.00090       -0.00020
C          3.05430        2.49870       -0.00060
C          3.05070       -2.50090        0.00070
C         -1.92970        0.00000       -1.20800
C         -1.92960        0.00230        1.20790
C         -3.32460       -0.00130       -1.20790
C         -3.32450        0.00090        1.20790
C         -4.02210       -0.00090        0.00000
H          0.37100       -2.15220       -0.00100
H          0.37370        2.15360       -0.00250
H          4.09200       -0.00150       -0.00410
H          4.02180        2.39680        0.50280
H          3.22760        2.83220       -1.02850
H          2.49710        3.27680        0.53220
H          3.21600       -2.83930       -1.02700
H          2.49600       -3.27550        0.54110
H          4.02200       -2.39860        0.49650
H         -1.40180       -0.00080       -2.15880
H         -1.40150        0.00320        2.15850
H         -3.86780       -0.00280       -2.14830
H         -3.86770        0.00120        2.14840
H         -5.10810       -0.00190        0.00010
