18
8723
O          2.13240        0.85390       -0.16210
C          0.02600       -0.36060       -0.27460
C         -1.44320       -0.42420        0.18590
C          0.81170        0.79570        0.35830
C          0.70970       -1.69830        0.03050
C         -2.23670        0.83350       -0.13800
H          0.04440       -0.23270       -1.36520
H         -1.93470       -1.27650       -0.29960
H         -1.48970       -0.60590        1.26660
H          0.87880        0.67660        1.44470
H          0.34170        1.76190        0.15420
H          0.75300       -1.88440        1.10920
H          1.73270       -1.71940       -0.35880
H          0.16570       -2.52780       -0.43410
H         -1.89540        1.68900        0.45190
H         -2.15770        1.08680       -1.19980
H         -3.29520        0.67760        0.09490
H          2.06290        0.97130       -1.12490
