27
8909
O          0.00010       -0.25040        0.00010
C          2.39170       -0.36570       -0.01880
C         -2.39180       -0.36560        0.01880
C          1.17500        0.54870       -0.00920
C         -1.17500        0.54880        0.00920
C          3.69420        0.42940       -0.01290
C         -3.69430        0.42950        0.01290
C          4.90650       -0.48730        0.02110
C         -4.90650       -0.48740       -0.02110
H          2.34960       -1.02000       -0.89850
H          2.35000       -1.03190        0.85210
H         -2.34950       -1.01980        0.89850
H         -2.34990       -1.03180       -0.85210
H          1.19120        1.18640        0.88250
H          1.17830        1.18710       -0.90060
H         -1.19110        1.18640       -0.88260
H         -1.17820        1.18720        0.90050
H          3.72270        1.09240        0.85970
H          3.74670        1.06470       -0.90480
H         -3.72280        1.09230       -0.85980
H         -3.74690        1.06470        0.90470
H          4.90120       -1.11200        0.92000
H          4.92590       -1.14440       -0.85420
H          5.82830        0.10290        0.02320
H         -4.90110       -1.11210       -0.92010
H         -4.92580       -1.14460        0.85420
H         -5.82820        0.10270       -0.02330
