32
89304
C         -0.01770        0.47010        0.37760
C          1.43130        0.49990       -0.22090
C         -1.09070       -0.10990       -0.60600
C          1.89520       -0.85670       -0.80780
C         -2.48740       -0.32810        0.02430
C         -0.42000        1.85720        0.90680
C          2.47000        1.00510        0.79220
C         -1.25630        0.73170       -1.87930
C          1.96550       -2.00720        0.18730
C         -2.48970       -1.26220        1.22570
H          0.01870       -0.19330        1.25040
H          1.44180        1.21800       -1.05140
H         -0.75840       -1.10570       -0.92180
H          1.25700       -1.14510       -1.64960
H          2.89480       -0.72360       -1.24220
H         -3.14680       -0.76710       -0.73620
H         -2.94680        0.62660        0.30260
H          0.22060        2.16270        1.74000
H         -1.44170        1.86580        1.29540
H         -0.34330        2.62190        0.12750
H          2.33130        2.07020        1.00260
H          2.40590        0.46170        1.74020
H          3.48740        0.89220        0.40210
H         -0.31150        0.83750       -2.41940
H         -1.63920        1.73240       -1.65560
H         -1.96460        0.25420       -2.56570
H          2.32190       -2.91200       -0.31610
H          0.98360       -2.23210        0.61300
H          2.65790       -1.79110        1.00570
H         -3.51900       -1.48130        1.52780
H         -1.98500       -0.81200        2.08510
H         -1.99760       -2.21050        0.98870
