32
89303
C         -0.13670       -0.29140       -0.44860
C         -1.65630       -0.53610       -0.18440
C          0.66900       -0.01200        0.84220
C          2.13780        0.42020        0.64010
C         -2.40600        0.68670        0.39120
C          0.47300       -1.45200       -1.24850
C         -1.92910       -1.74920        0.71650
C          2.18760        1.67920       -0.23180
C          2.98880       -0.67840        0.00240
C         -2.32800        1.93270       -0.47910
H         -0.08190        0.58530       -1.10210
H         -2.12140       -0.75460       -1.15640
H          0.65830       -0.90140        1.48450
H          0.17280        0.78100        1.41350
H          2.55270        0.65490        1.62830
H         -3.46630        0.42460        0.50220
H         -2.04710        0.92510        1.39860
H          0.82790       -2.26530       -0.61000
H         -0.27950       -1.88790       -1.91730
H          1.26230       -1.11200       -1.91950
H         -1.45120       -2.65290        0.32680
H         -1.56930       -1.58340        1.73690
H         -3.00470       -1.94990        0.77450
H          1.91370        1.48380       -1.27300
H          3.20470        2.08730       -0.23920
H          1.52430        2.45710        0.16130
H          4.03710       -0.50320        0.27790
H          2.74040       -1.67230        0.38470
H          2.98890       -0.66880       -1.08800
H         -1.31810        2.35250       -0.49030
H         -2.62840        1.71450       -1.50860
H         -2.99810        2.70500       -0.08750
