29
92723
C          0.41410       -0.32510       -0.00070
C         -1.11490        0.17700       -0.00030
C          1.39810        0.89390       -0.05780
C          0.69080       -1.25450       -1.20880
C          0.72720       -1.14540        1.27690
C         -2.11360       -1.00330        0.08520
C         -1.47640        0.96920       -1.28200
C         -1.41680        1.11170        1.19740
C          2.89160        0.57660       -0.01000
H          1.19950        1.57290        0.77790
H          1.22210        1.46480       -0.97600
H          1.70330       -1.67110       -1.17150
H          0.01600       -2.11450       -1.23200
H          0.60040       -0.72070       -2.15960
H          0.67250       -0.53000        2.18000
H          1.73430       -1.57550        1.24180
H          0.04930       -1.99470        1.39870
H         -3.14800       -0.63690        0.07330
H         -2.02050       -1.68930       -0.76110
H         -2.00210       -1.57510        1.01050
H         -0.87280        1.87510       -1.38900
H         -2.52490        1.29120       -1.26050
H         -1.35050        0.36370       -2.18450
H         -0.84380        2.04220        1.15210
H         -1.21490        0.62720        2.15700
H         -2.47520        1.40070        1.20780
H          3.20180       -0.05850       -0.84370
H          3.17700        0.09430        0.92860
H          3.46530        1.50730       -0.08090
