26
9387
F         -1.59860       -1.68240        1.08170
F          0.12130       -0.74660        2.00010
F          0.65260       -2.44150       -0.02070
F         -0.59200       -1.31480       -1.39570
F         -0.37540        1.59780        0.74940
F         -1.97980        0.82020        1.98680
F          0.99880        0.87010       -1.15570
F          1.97770       -0.96100       -1.79070
F         -2.77760        2.17320       -0.16720
F         -1.69010        0.86820       -1.51980
F          1.97460        0.44370        1.44260
F          2.96940       -1.35920        0.73080
F         -4.27190        0.05290        0.73800
F         -4.32340        0.30170       -1.42970
F         -3.13970       -1.29700       -0.53610
F          4.59470        0.82250        0.82920
F          4.25020        0.12020       -1.20650
F          3.26020        1.92830       -0.49730
C         -0.64620       -0.72900        0.87330
C          0.20930       -1.18060       -0.30180
C         -1.33080        0.62850        0.80050
C          1.41380       -0.34300       -0.71130
C         -2.32360        0.89540       -0.32090
C          2.49640       -0.14830        0.33970
C         -3.52840       -0.01040       -0.38450
C          3.65840        0.69090       -0.13430
