56
94321
C         -4.76430       -0.13710        0.45680
C         -6.00820       -0.81350       -0.12670
C         -3.48790       -0.65610       -0.20980
C         -7.32870       -0.31760        0.49520
C         -2.24590        0.04040        0.34870
C         -0.96800       -0.50160       -0.29370
C          0.27620        0.17050        0.28930
C          1.55620       -0.39550       -0.33000
C          2.79770        0.30120        0.23040
C          4.11200       -0.24130       -0.33960
C          5.39660        0.35580        0.24600
C         -7.51780        1.21200        0.46240
C          6.67270       -0.27040       -0.32190
C         -8.51080       -1.03670       -0.16440
C          7.95530        0.38800        0.19710
C         -7.64090        1.82270       -0.92680
C          9.23340       -0.28210       -0.30870
C         10.47230        0.36140        0.29560
H         -4.72030       -0.31390        1.53790
H         -4.81010        0.94580        0.30170
H         -5.92900       -1.89790        0.02430
H         -6.02900       -0.65410       -1.21220
H         -3.54360       -0.49140       -1.29280
H         -3.40680       -1.73820       -0.05070
H         -7.32080       -0.61030        1.55420
H         -2.31720        1.12040        0.17180
H         -2.20120       -0.10720        1.43470
H         -1.00230       -0.33750       -1.37750
H         -0.90790       -1.58490       -0.13240
H          0.29970        0.02380        1.37600
H          0.22620        1.25130        0.10970
H          1.52800       -0.26930       -1.41900
H          1.61710       -1.47210       -0.13020
H          2.73850        1.37710        0.02530
H          2.81210        0.18770        1.32140
H          4.11410       -0.08630       -1.42600
H          4.13500       -1.32760       -0.18400
H          5.38820        0.22950        1.33540
H          5.40430        1.43550        0.05250
H         -8.43280        1.45740        1.01780
H         -6.70890        1.70930        1.00780
H          6.68740       -1.33870       -0.07310
H          6.65520       -0.20050       -1.41640
H         -8.53460       -0.87570       -1.24690
H         -9.46180       -0.69330        0.25610
H         -8.44420       -2.11680        0.00630
H          7.94660        0.36180        1.29410
H          7.95980        1.44600       -0.09310
H         -8.51860        1.44500       -1.45870
H         -6.75250        1.62150       -1.53230
H         -7.74910        2.90940       -0.84640
H          9.22090       -1.34760       -0.05170
H          9.28140       -0.21150       -1.40140
H         10.52910        1.42320        0.03540
H         10.46780        0.27410        1.38670
H         11.37550       -0.12950       -0.08050
