38
9548
F          6.56940       -1.04650        0.49520
C          0.05680        0.50270        0.11690
C         -1.16770       -0.37190       -0.16670
C          1.35530       -0.24880       -0.18280
C         -2.46560        0.36890        0.16340
C          2.61570        0.57750        0.09090
C         -3.72550       -0.45310       -0.12300
C          3.94680       -0.10310       -0.24320
C         -5.02430        0.31320        0.13710
C          5.16710        0.77940        0.02700
C         -6.24770       -0.55760       -0.15220
C          6.46170        0.05240       -0.29750
C         -7.54200        0.18680        0.13510
H          0.05140        0.81610        1.16770
H          0.01010        1.41290       -0.49300
H         -1.17210       -0.66810       -1.22250
H         -1.11210       -1.29160        0.42790
H          1.39460       -1.16510        0.41900
H          1.35700       -0.56110       -1.23450
H         -2.50630        1.29770       -0.41930
H         -2.46050        0.65940        1.22130
H          2.55070        1.51190       -0.48120
H          2.62340        0.86460        1.15010
H         -3.70740       -0.78240       -1.16940
H         -3.70720       -1.35990        0.49420
H          3.94060       -0.39760       -1.30000
H          4.02630       -1.02780        0.34150
H         -5.05310        1.21170       -0.49100
H         -5.04730        0.64730        1.18140
H          5.10320        1.69740       -0.56760
H          5.17320        1.06570        1.08490
H         -6.23920       -0.87480       -1.20140
H         -6.21280       -1.46520        0.46170
H          7.32670        0.69280       -0.10360
H          6.49130       -0.27550       -1.34070
H         -7.59630        0.48830        1.18600
H         -7.62360        1.08510       -0.48510
H         -8.40320       -0.45360       -0.07940
