15
9606
F         -2.34590        1.10160        0.00010
C          1.20330        0.30270        0.00000
C          0.02140        1.04350        0.00000
C          1.15280       -1.09120        0.00000
C          2.52090        1.00090        0.00000
C         -1.21110        0.39040       -0.00020
C         -0.07970       -1.74430        0.00000
C         -1.26170       -1.00350        0.00000
H          0.04730        2.12990        0.00180
H          2.06660       -1.67950        0.00190
H          2.45740        1.96530       -0.51540
H          2.85430        1.17410        1.02810
H          3.28170        0.40940       -0.52070
H         -0.11930       -2.82960        0.00070
H         -2.22140       -1.51180        0.00020
