15
9609
S          0.00240        0.65540        0.00000
C         -1.37180       -0.52800        0.00000
C          1.36990       -0.52690        0.00000
C         -2.70230        0.20040        0.00000
C          2.70180        0.19900        0.00000
H         -1.30080       -1.16330       -0.88840
H         -1.30080       -1.16320        0.88850
H          1.29910       -1.16260        0.88820
H          1.29900       -1.16260       -0.88820
H         -2.81630        0.82980        0.88920
H         -2.81630        0.82980       -0.88920
H         -3.52370       -0.52370        0.00000
H          2.81750        0.82800       -0.88920
H          2.81740        0.82790        0.88930
H          3.52180       -0.52690        0.00000
