12
9741
F          2.36790        1.02540       -0.00020
F         -2.36810        1.02530        0.00010
C         -0.00030        1.05310        0.00010
C          1.20790        0.35580        0.00020
C         -1.20810        0.35540       -0.00020
C          1.20820       -1.03900        0.00010
C         -1.20790       -1.03940       -0.00010
C          0.00030       -1.73660        0.00000
H         -0.00040        2.13890        0.00010
H          2.14900       -1.58160        0.00010
H         -2.14840       -1.58220       -0.00010
H          0.00040       -2.82270        0.00010
