20
9760
F          2.90010       -0.90640        0.29370
C          0.19970       -0.11730       -0.26460
C         -1.16730        0.42080        0.16100
C          1.32520        0.83010        0.15450
C         -2.28940       -0.54090       -0.22900
C          2.68470        0.30790       -0.27810
C         -3.65300        0.00590        0.16250
H          0.21850       -0.25200       -1.35290
H          0.36160       -1.10400        0.18580
H         -1.18040        0.57750        1.24660
H         -1.33870        1.39720       -0.30830
H          1.31550        0.93610        1.24560
H          1.16250        1.82350       -0.27830
H         -2.13580       -1.51030        0.25920
H         -2.27080       -0.71600       -1.31110
H          2.74390        0.18750       -1.36370
H          3.48310        0.98060        0.04720
H         -3.71650        0.16400        1.24380
H         -4.44040       -0.69800       -0.12470
H         -3.85140        0.95970       -0.33680
