15
9906
F         -0.66440        2.37420        0.00070
F         -0.66460       -2.37340       -0.00080
F         -2.73950        1.25190       -0.00070
F         -2.73860       -0.62720       -1.08390
F         -2.71740       -0.62890        1.09060
F          2.06130       -2.36760       -0.00120
F          2.06150        2.36820       -0.00020
F          3.42840        0.00030       -0.00100
C         -0.70070        0.00030       -0.00050
C         -0.00320        1.20840       -0.00020
C         -0.00320       -1.20760       -0.00060
C         -2.19220        0.00040       -0.00070
C          1.39170       -1.20760       -0.00070
C          1.39170        1.20840       -0.00030
C          2.08910        0.00030       -0.00050
