6
9997
C         -0.68620        0.00030        0.00020
C          0.68620        0.00020        0.00000
C         -1.88640       -0.00030       -0.00010
C          1.88640       -0.00020       -0.00010
H         -2.95140       -0.00070       -0.00050
H          2.95140       -0.00070       -0.00010
